
Marvin  11060822382D          

 49 52  0  0  1  0            999 V2000
   -1.5215    0.2409    0.0000 C   0  0  0  0  0  0  0  0  0  0  0  0
   -1.9340    0.9554    0.0000 C   0  0  2  0  0  0  0  0  0  0  0  0
   -1.3819    1.5685    0.0000 C   0  0  2  0  0  0  0  0  0  0  0  0
   -0.6283    1.2330    0.0000 C   0  0  0  0  0  0  0  0  0  0  0  0
   -1.5535    2.3755    0.0000 O   0  0  0  0  0  0  0  0  0  0  0  0
   -2.7309    1.1689    0.0000 C   0  0  0  0  0  0  0  0  0  0  0  0
   -3.4453    0.7564    0.0000 C   0  0  0  0  0  0  0  0  0  0  0  0
   -3.6589   -0.0404    0.0000 C   0  0  2  0  0  0  0  0  0  0  0  0
   -3.2464   -0.7549    0.0000 C   0  0  2  0  0  0  0  0  0  0  0  0
   -2.4495   -0.9684    0.0000 C   0  0  2  0  0  0  0  0  0  0  0  0
   -1.7350   -0.5559    0.0000 C   0  0  2  0  0  0  0  0  0  0  0  0
   -1.0205   -0.9684    0.0000 O   0  0  0  0  0  0  0  0  0  0  0  0
   -1.0205   -1.7934    0.0000 C   0  0  2  0  0  0  0  0  0  0  0  0
   -0.3061   -2.2059    0.0000 C   0  0  1  0  0  0  0  0  0  0  0  0
   -0.3061   -3.0309    0.0000 C   0  0  2  0  0  0  0  0  0  0  0  0
   -1.0205   -3.4434    0.0000 C   0  0  1  0  0  0  0  0  0  0  0  0
   -1.7350   -3.0309    0.0000 C   0  0  2  0  0  0  0  0  0  0  0  0
   -1.7350   -2.2059    0.0000 O   0  0  0  0  0  0  0  0  0  0  0  0
   -2.4495   -3.4434    0.0000 C   0  0  0  0  0  0  0  0  0  0  0  0
   -3.1639   -3.0309    0.0000 O   0  0  0  0  0  0  0  0  0  0  0  0
   -3.8784   -3.4434    0.0000 C   0  0  0  0  0  0  0  0  0  0  0  0
   -4.5929   -3.0309    0.0000 C   0  0  0  0  0  0  0  0  0  0  0  0
   -3.8784   -4.2684    0.0000 C   0  0  0  0  0  0  0  0  0  0  0  0
   -1.0205   -4.2684    0.0000 O   0  0  0  0  0  0  0  0  0  0  0  0
    0.4084   -3.4434    0.0000 O   0  0  0  0  0  0  0  0  0  0  0  0
    1.1229   -3.0309    0.0000 C   0  0  0  0  0  0  0  0  0  0  0  0
    1.1229   -2.2059    0.0000 O   0  0  0  0  0  0  0  0  0  0  0  0
    1.8374   -3.4434    0.0000 C   0  0  0  0  0  0  0  0  0  0  0  0
    0.4084   -1.7934    0.0000 O   0  0  0  0  0  0  0  0  0  0  0  0
   -2.4495   -1.7934    0.0000 O   0  0  0  0  0  0  0  0  0  0  0  0
   -3.7486   -1.4094    0.0000 C   0  0  0  0  0  0  0  0  0  0  0  0
   -4.4827   -0.0836    0.0000 C   0  0  0  0  0  0  0  0  0  0  0  0
   -4.7784    0.6866    0.0000 C   0  0  0  0  0  0  0  0  0  0  0  0
   -4.1372    1.2058    0.0000 C   0  0  2  0  0  0  0  0  0  0  0  0
   -4.1804    2.0296    0.0000 C   0  0  0  0  0  0  0  0  0  0  0  0
   -3.4885    2.4790    0.0000 O   0  0  0  0  0  0  0  0  0  0  0  0
   -3.5317    3.3028    0.0000 C   0  0  0  0  0  0  0  0  0  0  0  0
   -4.0525   -0.7655    0.0000 H   0  0  0  0  0  0  0  0  0  0  0  0
   -2.1683    1.7464    0.0000 C   0  0  0  0  0  0  0  0  0  0  0  0
   -4.5929   -3.8559    0.0000 C   0  0  0  0  0  0  0  0  0  0  0  0
   -0.7145    0.4125    0.0000 C   0  0  0  0  0  0  0  0  0  0  0  0
    0.0000    0.0000    0.0000 C   0  0  1  0  0  0  0  0  0  0  0  0
    0.7145    0.4125    0.0000 C   0  0  0  0  0  0  0  0  0  0  0  0
    1.4290    0.0000    0.0000 O   0  0  0  0  0  0  0  0  0  0  0  0
    2.1434    0.4125    0.0000 C   0  0  0  0  0  0  0  0  0  0  0  0
    2.1434    1.2375    0.0000 O   0  0  0  0  0  0  0  0  0  0  0  0
    2.8579    0.0000    0.0000 C   0  0  0  0  0  0  0  0  0  0  0  0
    0.0000   -0.8250    0.0000 C   0  0  0  0  0  0  0  0  0  0  0  0
   -4.5929   -2.2059    0.0000 C   0  0  0  0  0  0  0  0  0  0  0  0
  1  2  1  0  0  0  0
  2  3  1  0  0  0  0
  3  4  1  0  0  0  0
 41  4  1  0  0  0  0
  1 41  2  0  0  0  0
  3  5  1  1  0  0  0
  2  6  1  0  0  0  0
  6  7  2  0  0  0  0
  7  8  1  0  0  0  0
  9  8  1  0  0  0  0
 10  9  1  0  0  0  0
 11 10  1  0  0  0  0
  1 11  1  0  0  0  0
 11 12  1  1  0  0  0
 13 12  1  6  0  0  0
 13 14  1  0  0  0  0
 14 15  1  0  0  0  0
 15 16  1  0  0  0  0
 17 16  1  0  0  0  0
 18 17  1  0  0  0  0
 13 18  1  0  0  0  0
 17 19  1  1  0  0  0
 19 20  1  0  0  0  0
 20 21  1  0  0  0  0
 21 22  1  0  0  0  0
 21 23  1  0  0  0  0
 16 24  1  6  0  0  0
 15 25  1  1  0  0  0
 25 26  1  0  0  0  0
 26 27  2  0  0  0  0
 26 28  1  0  0  0  0
 14 29  1  6  0  0  0
 10 30  1  6  0  0  0
  9 31  1  6  0  0  0
  8 32  1  0  0  0  0
 32 33  1  0  0  0  0
 34 33  1  0  0  0  0
  7 34  1  0  0  0  0
 34 35  1  6  0  0  0
 35 36  1  0  0  0  0
 36 37  1  0  0  0  0
  8 38  1  1  0  0  0
  2 39  1  6  0  0  0
 21 40  1  0  0  0  0
 42 41  1  0  0  0  0
 42 43  1  0  0  0  0
 43 44  1  0  0  0  0
 44 45  1  0  0  0  0
 45 46  2  0  0  0  0
 45 47  1  0  0  0  0
 42 48  1  1  0  0  0
 22 49  2  0  0  0  0
M  END
> <ID>
CHEBI:51015

> <NAME>
fusicoccin

$$$$

Marvin  02071113422D          

 78 87  0  0  1  0            999 V2000
   12.5509  -14.7811    0.0000 O   0  0  0  0  0  0  0  0  0  0  0  0
   11.9692  -15.3670    0.0000 C   0  0  2  0  0  0  0  0  0  0  0  0
   11.9692  -16.1913    0.0000 C   0  0  1  0  0  0  0  0  0  0  0  0
   12.5553  -16.7730    0.0000 C   0  0  0  0  0  0  0  0  0  0  0  0
   13.3825  -16.7700    0.0000 C   0  0  0  0  0  0  0  0  0  0  0  0
   13.9642  -16.1841    0.0000 C   0  0  0  0  0  0  0  0  0  0  0  0
   13.9942  -13.3472    0.0000 C   0  0  0  0  0  0  0  0  0  0  0  0
   13.4080  -13.9287    0.0000 C   0  0  0  0  0  0  0  0  0  0  0  0
   13.4016  -14.7530    0.0000 C   0  0  2  0  0  0  0  0  0  0  0  0
   13.9831  -15.3392    0.0000 C   0  0  1  0  0  0  0  0  0  0  0  0
   14.8104  -15.3425    0.0000 O   0  0  0  0  0  0  0  0  0  0  0  0
   14.8156  -13.3505    0.0000 C   0  0  0  0  0  0  0  0  0  0  0  0
   17.5327  -12.0493    0.0000 C   0  0  0  0  0  0  0  0  0  0  0  0
   16.8467  -12.5034    0.0000 C   0  0  1  0  0  0  0  0  0  0  0  0
   16.7686  -13.3250    0.0000 C   0  0  1  0  0  0  0  0  0  0  0  0
   18.3212  -12.3097    0.0000 C   0  0  1  0  0  0  0  0  0  0  0  0
   18.1788  -13.7913    0.0000 O   0  0  0  0  0  0  0  0  0  0  0  0
   18.6057  -13.0843    0.0000 C   0  0  2  0  0  0  0  0  0  0  0  0
   15.9400  -13.3995    0.0000 O   0  0  0  0  0  0  0  0  0  0  0  0
   15.3745  -14.0011    0.0000 C   0  0  2  0  0  0  0  0  0  0  0  0
   15.3970  -14.8251    0.0000 C   0  0  1  0  0  0  0  0  0  0  0  0
   15.9084  -15.3059    0.0000 C   0  0  0  0  0  0  0  0  0  0  0  0
   16.6559  -15.5453    0.0000 C   0  0  0  0  0  0  0  0  0  0  0  0
   17.3417  -15.0568    0.0000 C   0  0  0  0  0  0  0  0  0  0  0  0
   17.3024  -13.8830    0.0000 C   0  0  1  0  0  0  0  0  0  0  0  0
   17.4849  -14.3980    0.0000 C   0  0  0  0  0  0  0  0  0  0  0  0
   19.9470  -12.5914    0.0000 C   0  0  1  0  0  0  0  0  0  0  0  0
   19.4187  -13.2251    0.0000 C   0  0  0  0  0  0  0  0  0  0  0  0
   20.0167  -11.1252    0.0000 C   0  0  0  0  0  0  0  0  0  0  0  0
   19.6704  -11.8439    0.0000 C   0  0  1  0  0  0  0  0  0  0  0  0
   20.6922  -12.9635    0.0000 O   0  0  0  0  0  0  0  0  0  0  0  0
   21.4645  -12.7083    0.0000 C   0  0  1  0  0  0  0  0  0  0  0  0
   21.8107  -11.9895    0.0000 C   0  0  2  0  0  0  0  0  0  0  0  0
   21.5274  -11.2302    0.0000 C   0  0  0  0  0  0  0  0  0  0  0  0
   20.7836  -10.8717    0.0000 C   0  0  1  0  0  0  0  0  0  0  0  0
   18.8005  -11.5456    0.0000 O   0  0  0  0  0  0  0  0  0  0  0  0
   19.4324  -11.0540    0.0000 C   0  0  0  0  0  0  0  0  0  0  0  0
   16.1261  -12.0710    0.0000 C   0  0  0  0  0  0  0  0  0  0  0  0
   22.6012  -12.0968    0.0000 O   0  0  0  0  0  0  0  0  0  0  0  0
   22.7436  -12.8817    0.0000 C   0  0  0  0  0  0  0  0  0  0  0  0
   22.0410  -13.2596    0.0000 C   0  0  0  0  0  0  0  0  0  0  0  0
   20.8360  -10.0641    0.0000 C   0  0  0  0  0  0  0  0  0  0  0  0
   23.4900  -13.2413    0.0000 O   0  0  0  0  0  0  0  0  0  0  0  0
   11.2548  -16.6038    0.0000 O   0  0  0  0  0  0  0  0  0  0  0  0
   10.5403  -16.1913    0.0000 C   0  0  2  0  0  0  0  0  0  0  0  0
   10.5403  -15.3670    0.0000 C   0  0  1  0  0  0  0  0  0  0  0  0
   11.2548  -14.9545    0.0000 C   0  0  0  0  0  0  0  0  0  0  0  0
    9.8258  -16.6038    0.0000 C   0  0  0  0  0  0  0  0  0  0  0  0
    9.1113  -16.1914    0.0000 C   0  0  2  0  0  0  0  0  0  0  0  0
    9.1113  -15.3670    0.0000 C   0  0  1  0  0  0  0  0  0  0  0  0
    9.8258  -14.9545    0.0000 O   0  0  0  0  0  0  0  0  0  0  0  0
    8.3968  -16.6039    0.0000 O   0  0  0  0  0  0  0  0  0  0  0  0
    7.6823  -16.1914    0.0000 C   0  0  1  0  0  0  0  0  0  0  0  0
    7.6823  -15.3670    0.0000 C   0  0  0  0  0  0  0  0  0  0  0  0
    8.3968  -14.9545    0.0000 C   0  0  2  0  0  0  0  0  0  0  0  0
    8.3968  -14.1308    0.0000 O   0  0  0  0  0  0  0  0  0  0  0  0
    6.9504  -16.6136    0.0000 C   0  0  0  0  0  0  0  0  0  0  0  0
   11.7105  -14.5835    0.0000 C   0  0  0  0  0  0  0  0  0  0  0  0
    6.2245  -16.1943    0.0000 C   0  0  0  0  0  0  0  0  0  0  0  0
    6.2246  -15.3748    0.0000 C   0  0  0  0  0  0  0  0  0  0  0  0
    5.4964  -16.6145    0.0000 C   0  0  0  0  0  0  0  0  0  0  0  0
    5.4963  -17.4378    0.0000 O   0  0  0  0  0  0  0  0  0  0  0  0
   22.1785  -11.2594    0.0000 H   0  0  0  0  0  0  0  0  0  0  0  0
   21.2983  -13.5087    0.0000 H   0  0  0  0  0  0  0  0  0  0  0  0
   20.2033  -13.3677    0.0000 H   0  0  0  0  0  0  0  0  0  0  0  0
   18.0649  -11.5335    0.0000 H   0  0  0  0  0  0  0  0  0  0  0  0
   16.1586  -12.7809    0.0000 H   0  0  0  0  0  0  0  0  0  0  0  0
   15.3279  -13.1850    0.0000 H   0  0  0  0  0  0  0  0  0  0  0  0
   12.7916  -14.2088    0.0000 H   0  0  0  0  0  0  0  0  0  0  0  0
   10.4937  -14.5509    0.0000 H   0  0  0  0  0  0  0  0  0  0  0  0
    9.0647  -14.5509    0.0000 H   0  0  0  0  0  0  0  0  0  0  0  0
    8.9451  -16.9917    0.0000 H   0  0  0  0  0  0  0  0  0  0  0  0
   10.5869  -17.0075    0.0000 H   0  0  0  0  0  0  0  0  0  0  0  0
   12.0159  -17.0075    0.0000 H   0  0  0  0  0  0  0  0  0  0  0  0
   15.4436  -15.6412    0.0000 H   0  0  0  0  0  0  0  0  0  0  0  0
   14.5932  -15.8833    0.0000 H   0  0  0  0  0  0  0  0  0  0  0  0
   17.9125  -14.4272    0.0000 H   0  0  0  0  0  0  0  0  0  0  0  0
   18.8620  -13.8605    0.0000 H   0  0  0  0  0  0  0  0  0  0  0  0
  2  1  1  0  0  0  0
  2  3  1  0  0  0  0
  3  4  1  0  0  0  0
  4  5  1  0  0  0  0
  5  6  1  0  0  0  0
  7  8  2  0  0  0  0
  8  9  1  0  0  0  0
 11 10  1  0  0  0  0
 12  7  1  0  0  0  0
 13 16  1  0  0  0  0
 14 15  1  0  0  0  0
 16 18  1  0  0  0  0
 13 14  1  0  0  0  0
 18 17  1  0  0  0  0
 21 22  1  0  0  0  0
 22 23  1  0  0  0  0
 23 24  2  0  0  0  0
 25 26  1  0  0  0  0
 26 24  1  0  0  0  0
 20 19  1  0  0  0  0
 15 19  1  0  0  0  0
 25 17  1  0  0  0  0
 15 25  1  0  0  0  0
 27 28  1  0  0  0  0
 18 28  1  0  0  0  0
 29 30  1  0  0  0  0
 32 31  1  0  0  0  0
 32 33  1  0  0  0  0
 33 34  1  0  0  0  0
 34 35  1  0  0  0  0
 35 29  1  0  0  0  0
 30 27  1  0  0  0  0
 27 31  1  0  0  0  0
 30 36  1  0  0  0  0
 16 36  1  0  0  0  0
 30 37  1  1  0  0  0
 14 38  1  1  0  0  0
 33 39  1  6  0  0  0
 39 40  1  0  0  0  0
 40 41  1  0  0  0  0
 32 41  1  0  0  0  0
 35 42  1  6  0  0  0
 40 43  2  0  0  0  0
 12 20  1  0  0  0  0
 21 11  1  0  0  0  0
 20 21  1  0  0  0  0
  9  1  1  0  0  0  0
  6 10  1  0  0  0  0
  9 10  1  0  0  0  0
  3 44  1  0  0  0  0
 45 44  1  0  0  0  0
 45 46  1  0  0  0  0
 46 47  1  0  0  0  0
  2 47  1  0  0  0  0
 45 48  1  0  0  0  0
 48 49  1  0  0  0  0
 49 50  1  0  0  0  0
 50 51  1  0  0  0  0
 46 51  1  0  0  0  0
 49 52  1  0  0  0  0
 53 52  1  0  0  0  0
 53 54  1  0  0  0  0
 54 55  1  0  0  0  0
 50 55  1  0  0  0  0
 55 56  1  6  0  0  0
 53 57  1  6  0  0  0
  2 58  1  1  0  0  0
 57 59  1  0  0  0  0
 59 60  2  0  0  0  0
 59 61  1  0  0  0  0
 61 62  2  0  0  0  0
 33 63  1  1  0  0  0
 32 64  1  6  0  0  0
 27 65  1  6  0  0  0
 16 66  1  1  0  0  0
 15 67  1  1  0  0  0
 20 68  1  1  0  0  0
  9 69  1  1  0  0  0
 46 70  1  1  0  0  0
 50 71  1  1  0  0  0
 49 72  1  6  0  0  0
 45 73  1  6  0  0  0
  3 74  1  6  0  0  0
 21 75  1  6  0  0  0
 10 76  1  6  0  0  0
 25 77  1  6  0  0  0
 18 78  1  6  0  0  0
M  END
> <ID>
CHEBI:61250

> <NAME>
brevetoxin A

$$$$

  Ketcher 04041717022D 1   1.00000     0.00000     0

  0  0  0     0  0            999 V2000
M  END> <ID>
CHEBI:61275

> <NAME>
ciguatoxin

$$$$

Ketcher 10041823352D 1   1.00000     0.00000     0

 63 71  0     1  0            999 V2000
   22.7426   -9.1665    0.0000 C   0  0  0  0  0  0  0  0  0  0  0  0
   23.5441   -8.5852    0.0000 O   0  0  0  0  0  0  0  0  0  0  0  0
   23.0477  -10.1085    0.0000 C   0  0  0  0  0  0  0  0  0  0  0  0
   24.3447   -9.1679    0.0000 C   0  0  0  0  0  0  0  0  0  0  0  0
   24.0380  -10.1093    0.0000 C   0  0  0  0  0  0  0  0  0  0  0  0
   24.3465   -7.9171    0.0000 C   0  0  0  0  0  0  0  0  0  0  0  0
   23.4889   -7.4221    0.0000 C   0  0  0  0  0  0  0  0  0  0  0  0
   22.6314   -7.9171    0.0000 O   0  0  0  0  0  0  0  0  0  0  0  0
   25.3587   -9.5042    0.0000 C   0  0  0  0  0  0  0  0  0  0  0  0
   11.9281   -9.6093    0.0000 C   0  0  0  0  0  0  0  0  0  0  0  0
   11.9281  -10.5994    0.0000 O   0  0  0  0  0  0  0  0  0  0  0  0
   11.0706   -9.1142    0.0000 C   0  0  0  0  0  0  0  0  0  0  0  0
   11.0706  -11.0945    0.0000 C   0  0  0  0  0  0  0  0  0  0  0  0
   10.2131   -9.6093    0.0000 C   0  0  0  0  0  0  0  0  0  0  0  0
   10.2131  -10.5994    0.0000 C   0  0  0  0  0  0  0  0  0  0  0  0
   11.0706   -8.1240    0.0000 O   0  0  0  0  0  0  0  0  0  0  0  0
    9.3556   -9.1142    0.0000 C   0  0  0  0  0  0  0  0  0  0  0  0
   12.7856   -9.1142    0.0000 C   0  0  0  0  0  0  0  0  0  0  0  0
   13.5872   -9.6955    0.0000 O   0  0  0  0  0  0  0  0  0  0  0  0
   13.0908   -8.1722    0.0000 C   0  0  0  0  0  0  0  0  0  0  0  0
   14.3877   -9.1128    0.0000 C   0  0  0  0  0  0  0  0  0  0  0  0
   14.0811   -8.1713    0.0000 C   0  0  0  0  0  0  0  0  0  0  0  0
   11.9296   -8.5416    0.0000 O   0  0  0  0  0  0  0  0  0  0  0  0
   12.5081   -7.3717    0.0000 O   0  0  0  0  0  0  0  0  0  0  0  0
   14.6625   -7.3698    0.0000 O   0  0  0  0  0  0  0  0  0  0  0  0
   16.3774   -6.3796    0.0000 C   0  0  0  0  0  0  0  0  0  0  0  0
   16.3774   -7.3698    0.0000 C   0  0  0  0  0  0  0  0  0  0  0  0
   15.5199   -5.8846    0.0000 C   0  0  0  0  0  0  0  0  0  0  0  0
   14.6625   -6.3796    0.0000 C   0  0  0  0  0  0  0  0  0  0  0  0
   13.8049   -5.8846    0.0000 O   0  0  0  0  0  0  0  0  0  0  0  0
   15.5199   -4.8944    0.0000 C   0  0  0  0  0  0  0  0  0  0  0  0
   18.0925   -6.3796    0.0000 C   0  0  0  0  0  0  0  0  0  0  0  0
   18.0925   -7.3698    0.0000 C   0  0  0  0  0  0  0  0  0  0  0  0
   17.2349   -5.8846    0.0000 O   0  0  0  0  0  0  0  0  0  0  0  0
   17.2349   -7.8649    0.0000 C   0  0  0  0  0  0  0  0  0  0  0  0
   18.8941   -6.9609    0.0000 O   0  0  0  0  0  0  0  0  0  0  0  0
   18.3976   -5.4377    0.0000 C   0  0  0  0  0  0  0  0  0  0  0  0
   19.6946   -6.3782    0.0000 C   0  0  0  0  0  0  0  0  0  0  0  0
   19.3879   -5.4368    0.0000 C   0  0  0  0  0  0  0  0  0  0  0  0
   21.4096   -6.3782    0.0000 C   0  0  0  0  0  0  0  0  0  0  0  0
   20.5521   -6.8733    0.0000 C   0  0  0  0  0  0  0  0  0  0  0  0
   20.5521   -7.8635    0.0000 O   0  0  0  0  0  0  0  0  0  0  0  0
   22.2112   -6.9595    0.0000 O   0  0  0  0  0  0  0  0  0  0  0  0
   21.7148   -5.4362    0.0000 C   0  0  0  0  0  0  0  0  0  0  0  0
   23.0118   -6.3768    0.0000 C   0  0  0  0  0  0  0  0  0  0  0  0
   22.7051   -5.4354    0.0000 C   0  0  0  0  0  0  0  0  0  0  0  0
   20.7217   -5.5114    0.0000 C   0  0  0  0  0  0  0  0  0  0  0  0
   23.2865   -4.6339    0.0000 O   0  0  0  0  0  0  0  0  0  0  0  0
   16.1028   -9.1128    0.0000 C   0  0  0  0  0  0  0  0  0  0  0  0
   15.2452   -9.6078    0.0000 C   0  0  0  0  0  0  0  0  0  0  0  0
   16.9603   -9.6078    0.0000 C   0  0  0  0  0  0  0  0  0  0  0  0
   17.8178   -9.1128    0.0000 C   0  0  0  0  0  0  0  0  0  0  0  0
   18.6753   -9.6078    0.0000 C   0  0  0  0  0  0  0  0  0  0  0  0
   19.5327   -9.1128    0.0000 C   0  0  0  0  0  0  0  0  0  0  0  0
   20.3903   -9.6078    0.0000 C   0  0  0  0  0  0  0  0  0  0  0  0
   16.9603  -10.5980    0.0000 C   0  0  0  0  0  0  0  0  0  0  0  0
   18.6753  -10.5980    0.0000 C   0  0  0  0  0  0  0  0  0  0  0  0
   21.1918   -9.0266    0.0000 O   0  0  0  0  0  0  0  0  0  0  0  0
   20.6955  -10.5498    0.0000 C   0  0  0  0  0  0  0  0  0  0  0  0
   21.9923   -9.6093    0.0000 C   0  0  0  0  0  0  0  0  0  0  0  0
   21.6857  -10.5506    0.0000 C   0  0  0  0  0  0  0  0  0  0  0  0
   20.2445   -8.6131    0.0000 C   0  0  0  0  0  0  0  0  0  0  0  0
   14.3871   -9.9493    0.0000 H   0  0  0  0  0  0  0  0  0  0  0  0
  1  2  1  1     0  0
  3  1  1  0     0  0
  4  2  1  1     0  0
  5  3  1  0     0  0
  5  4  1  0     0  0
  7  6  1  0     0  0
  7  8  1  1     0  0
  1  8  1  0     0  0
  4  6  1  0     0  0
  4  9  1  0     0  0
 11 10  1  0     0  0
 12 10  1  0     0  0
 13 11  1  0     0  0
 14 12  1  0     0  0
 15 13  1  0     0  0
 15 14  1  0     0  0
 12 16  1  1     0  0
 14 17  1  1     0  0
 10 18  1  0     0  0
 18 19  1  6     0  0
 20 18  1  0     0  0
 21 19  1  0     0  0
 22 20  1  0     0  0
 22 21  1  0     0  0
 10 23  1  6     0  0
 20 24  1  1     0  0
 22 25  1  1     0  0
 28 26  1  0     0  0
 29 28  1  0     0  0
 25 29  1  0     0  0
 29 30  2  0     0  0
 28 31  1  6     0  0
 33 32  1  0     0  0
 32 34  1  1     0  0
 35 33  1  0     0  0
 26 34  1  1     0  0
 27 35  1  0     0  0
 27 26  1  0     0  0
 36 32  1  0     0  0
 37 32  1  0     0  0
 38 36  1  1     0  0
 39 37  1  0     0  0
 39 38  1  0     0  0
 41 40  1  0     0  0
 38 41  1  0     0  0
 41 42  1  1     0  0
 43 40  1  0     0  0
 44 40  1  0     0  0
 45 43  1  1     0  0
 46 44  1  0     0  0
 46 45  1  0     0  0
 40 47  1  6     0  0
 46 48  2  0     0  0
 50 49  2  0     0  0
 21 50  1  0     0  0
 51 49  1  0     0  0
 52 51  2  0     0  0
 53 52  1  0     0  0
 54 53  1  0     0  0
 55 54  1  0     0  0
 51 56  1  0     0  0
 53 57  1  1     0  0
 58 55  1  0     0  0
 59 55  1  0     0  0
 60 58  1  1     0  0
 61 59  1  0     0  0
 61 60  1  0     0  0
 55 62  1  1     0  0
 21 63  1  6     0  0
  7 45  1  0     0  0
 60  1  1  0     0  0
M  END
> <ID>
CHEBI:142397

> <NAME>
pectenotoxin-11

$$$$

Ketcher 02202015292D 1   1.00000     0.00000     0

188197  0     1  0            999 V2000
   27.4241  -13.2716    0.0000 C   0  0  0  0  0  0  0  0  0  0  0  0
   26.8403  -12.4684    0.0000 C   0  0  0  0  0  0  0  0  0  0  0  0
   26.8405  -14.0752    0.0000 O   0  0  0  0  0  0  0  0  0  0  0  0
   25.8960  -12.7754    0.0000 C   0  0  0  0  0  0  0  0  0  0  0  0
   25.8960  -13.7683    0.0000 C   0  0  0  0  0  0  0  0  0  0  0  0
   25.0926  -14.3521    0.0000 C   0  0  0  0  0  0  0  0  0  0  0  0
   24.1854  -13.9483    0.0000 N   0  0  0  0  0  0  0  0  0  0  0  0
   27.1470  -11.5239    0.0000 O   0  0  0  0  0  0  0  0  0  0  0  0
   28.4171  -13.2716    0.0000 C   0  0  0  0  0  0  0  0  0  0  0  0
   28.9136  -12.4115    0.0000 C   0  0  0  0  0  0  0  0  0  0  0  0
   29.9066  -12.4114    0.0000 C   0  0  0  0  0  0  0  0  0  0  0  0
   30.1286  -13.3794    0.0000 C   0  0  0  0  0  0  0  0  0  0  0  0
   30.5250  -11.6344    0.0000 O   0  0  0  0  0  0  0  0  0  0  0  0
   31.0236  -13.8094    0.0000 O   0  0  0  0  0  0  0  0  0  0  0  0
   31.5181  -11.6336    0.0000 C   0  0  0  0  0  0  0  0  0  0  0  0
   32.1380  -12.4094    0.0000 C   0  0  0  0  0  0  0  0  0  0  0  0
   31.9180  -13.3777    0.0000 C   0  0  0  0  0  0  0  0  0  0  0  0
   31.2137  -12.6976    0.0000 C   0  0  0  0  0  0  0  0  0  0  0  0
   33.6380  -13.3777    0.0000 C   0  0  0  0  0  0  0  0  0  0  0  0
   33.6380  -14.3708    0.0000 C   0  0  0  0  0  0  0  0  0  0  0  0
   32.7779  -12.8812    0.0000 C   0  0  0  0  0  0  0  0  0  0  0  0
   32.7779  -14.8673    0.0000 C   0  0  0  0  0  0  0  0  0  0  0  0
   34.4980  -12.8812    0.0000 O   0  0  0  0  0  0  0  0  0  0  0  0
   34.4979  -14.8673    0.0000 O   0  0  0  0  0  0  0  0  0  0  0  0
   34.4979  -15.8603    0.0000 O   0  0  0  0  0  0  0  0  0  0  0  0
   33.6379  -16.3568    0.0000 C   0  0  0  0  0  0  0  0  0  0  0  0
   32.7779  -15.8603    0.0000 C   0  0  0  0  0  0  0  0  0  0  0  0
   35.3580  -16.3568    0.0000 C   0  0  0  0  0  0  0  0  0  0  0  0
   35.3580  -17.3499    0.0000 C   0  0  0  0  0  0  0  0  0  0  0  0
   34.4979  -17.8464    0.0000 C   0  0  0  0  0  0  0  0  0  0  0  0
   33.6380  -17.3499    0.0000 C   0  0  0  0  0  0  0  0  0  0  0  0
   32.7780  -17.8464    0.0000 O   0  0  0  0  0  0  0  0  0  0  0  0
   34.4979  -18.8394    0.0000 O   0  0  0  0  0  0  0  0  0  0  0  0
   36.2179  -17.8464    0.0000 O   0  0  0  0  0  0  0  0  0  0  0  0
   36.2179  -15.8603    0.0000 C   0  0  0  0  0  0  0  0  0  0  0  0
   37.9380  -14.8673    0.0000 C   0  0  0  0  0  0  0  0  0  0  0  0
   37.9380  -15.8603    0.0000 C   0  0  0  0  0  0  0  0  0  0  0  0
   37.0779  -14.3708    0.0000 O   0  0  0  0  0  0  0  0  0  0  0  0
   37.0779  -16.3568    0.0000 C   0  0  0  0  0  0  0  0  0  0  0  0
   39.6580  -14.8673    0.0000 C   0  0  0  0  0  0  0  0  0  0  0  0
   38.7979  -14.3708    0.0000 C   0  0  0  0  0  0  0  0  0  0  0  0
   38.7979  -16.3568    0.0000 O   0  0  0  0  0  0  0  0  0  0  0  0
   40.5180  -13.3777    0.0000 C   0  0  0  0  0  0  0  0  0  0  0  0
   40.5180  -14.3708    0.0000 C   0  0  0  0  0  0  0  0  0  0  0  0
   38.7980  -13.3777    0.0000 O   0  0  0  0  0  0  0  0  0  0  0  0
   42.2381  -13.3777    0.0000 C   0  0  0  0  0  0  0  0  0  0  0  0
   42.2381  -14.3708    0.0000 C   0  0  0  0  0  0  0  0  0  0  0  0
   41.3780  -12.8812    0.0000 C   0  0  0  0  0  0  0  0  0  0  0  0
   43.9581  -13.3777    0.0000 O   0  0  0  0  0  0  0  0  0  0  0  0
   43.9581  -14.3708    0.0000 C   0  0  0  0  0  0  0  0  0  0  0  0
   43.0981  -14.8673    0.0000 C   0  0  0  0  0  0  0  0  0  0  0  0
   44.8181  -14.8674    0.0000 C   0  0  0  0  0  0  0  0  0  0  0  0
   44.8179  -15.8605    0.0000 C   0  0  0  0  0  0  0  0  0  0  0  0
   43.0980  -15.8603    0.0000 O   0  0  0  0  0  0  0  0  0  0  0  0
   43.9580  -16.3569    0.0000 C   0  0  0  0  0  0  0  0  0  0  0  0
   37.0779  -17.3499    0.0000 C   0  0  0  0  0  0  0  0  0  0  0  0
   39.6613  -12.5821    0.0000 C   0  0  0  0  0  0  0  0  0  0  0  0
   45.6781  -14.3709    0.0000 O   0  0  0  0  0  0  0  0  0  0  0  0
   43.9579  -17.3499    0.0000 C   0  0  0  0  0  0  0  0  0  0  0  0
   44.8179  -18.8395    0.0000 O   0  0  0  0  0  0  0  0  0  0  0  0
   43.9579  -19.3360    0.0000 C   0  0  0  0  0  0  0  0  0  0  0  0
   43.0979  -17.8464    0.0000 C   0  0  0  0  0  0  0  0  0  0  0  0
   43.0979  -18.8395    0.0000 C   0  0  0  0  0  0  0  0  0  0  0  0
   45.6780  -20.3290    0.0000 C   0  0  0  0  0  0  0  0  0  0  0  0
   44.8179  -20.8255    0.0000 C   0  0  0  0  0  0  0  0  0  0  0  0
   43.9580  -20.3290    0.0000 C   0  0  0  0  0  0  0  0  0  0  0  0
   46.5380  -20.8255    0.0000 C   0  0  0  0  0  0  0  0  0  0  0  0
   46.5380  -21.8186    0.0000 C   0  0  0  0  0  0  0  0  0  0  0  0
   45.6780  -22.3151    0.0000 C   0  0  0  0  0  0  0  0  0  0  0  0
   44.8180  -21.8186    0.0000 O   0  0  0  0  0  0  0  0  0  0  0  0
   45.6780  -19.3360    0.0000 O   0  0  0  0  0  0  0  0  0  0  0  0
   47.3980  -20.3289    0.0000 O   0  0  0  0  0  0  0  0  0  0  0  0
   47.3980  -22.3151    0.0000 O   0  0  0  0  0  0  0  0  0  0  0  0
   45.6780  -23.3081    0.0000 C   0  0  0  0  0  0  0  0  0  0  0  0
   46.5380  -23.8046    0.0000 C   0  0  0  0  0  0  0  0  0  0  0  0
   46.5379  -24.7977    0.0000 C   0  0  0  0  0  0  0  0  0  0  0  0
   45.6778  -25.2942    0.0000 O   0  0  0  0  0  0  0  0  0  0  0  0
   47.3979  -25.2942    0.0000 C   0  0  0  0  0  0  0  0  0  0  0  0
   47.3979  -26.2873    0.0000 C   0  0  0  0  0  0  0  0  0  0  0  0
   46.5379  -26.7838    0.0000 O   0  0  0  0  0  0  0  0  0  0  0  0
   47.3979  -23.3082    0.0000 O   0  0  0  0  0  0  0  0  0  0  0  0
   48.2579  -26.7838    0.0000 C   0  0  0  0  0  0  0  0  0  0  0  0
   48.2579  -27.7768    0.0000 C   0  0  0  0  0  0  0  0  0  0  0  0
   47.3979  -28.2733    0.0000 C   0  0  0  0  0  0  0  0  0  0  0  0
   46.5379  -27.7768    0.0000 C   0  0  0  0  0  0  0  0  0  0  0  0
   49.1179  -26.2873    0.0000 O   0  0  0  0  0  0  0  0  0  0  0  0
   49.1179  -28.2733    0.0000 O   0  0  0  0  0  0  0  0  0  0  0  0
   46.5377  -29.7627    0.0000 O   0  0  0  0  0  0  0  0  0  0  0  0
   45.6780  -28.2733    0.0000 C   0  0  0  0  0  0  0  0  0  0  0  0
   45.6779  -29.2662    0.0000 C   0  0  0  0  0  0  0  0  0  0  0  0
   44.8180  -27.7767    0.0000 O   0  0  0  0  0  0  0  0  0  0  0  0
   46.5343  -28.7937    0.0000 H   0  0  0  0  0  0  0  0  0  0  0  0
   29.3381  -29.7627    0.0000 C   0  0  0  0  0  0  0  0  0  0  0  0
   30.1981  -29.2662    0.0000 C   0  0  0  0  0  0  0  0  0  0  0  0
   31.0581  -29.7627    0.0000 C   0  0  0  0  0  0  0  0  0  0  0  0
   31.9181  -29.2662    0.0000 C   0  0  0  0  0  0  0  0  0  0  0  0
   32.7781  -29.7627    0.0000 C   0  0  0  0  0  0  0  0  0  0  0  0
   33.6381  -29.2662    0.0000 C   0  0  0  0  0  0  0  0  0  0  0  0
   34.4981  -29.7627    0.0000 C   0  0  0  0  0  0  0  0  0  0  0  0
   35.3580  -29.2662    0.0000 C   0  0  0  0  0  0  0  0  0  0  0  0
   36.2180  -29.7627    0.0000 C   0  0  0  0  0  0  0  0  0  0  0  0
   37.0780  -29.2662    0.0000 O   0  0  0  0  0  0  0  0  0  0  0  0
   37.9380  -29.7627    0.0000 C   0  0  0  0  0  0  0  0  0  0  0  0
   38.7980  -29.2662    0.0000 C   0  0  0  0  0  0  0  0  0  0  0  0
   39.6580  -29.7627    0.0000 C   0  0  0  0  0  0  0  0  0  0  0  0
   40.5180  -29.2662    0.0000 C   0  0  0  0  0  0  0  0  0  0  0  0
   41.3780  -29.7627    0.0000 C   0  0  0  0  0  0  0  0  0  0  0  0
   42.2379  -29.2662    0.0000 C   0  0  0  0  0  0  0  0  0  0  0  0
   43.0979  -29.7627    0.0000 C   0  0  0  0  0  0  0  0  0  0  0  0
   43.9580  -29.2662    0.0000 C   0  0  0  0  0  0  0  0  0  0  0  0
   44.8179  -29.7627    0.0000 C   0  0  0  0  0  0  0  0  0  0  0  0
   40.5180  -28.2732    0.0000 C   0  0  0  0  0  0  0  0  0  0  0  0
   37.9320  -28.6501    0.0000 O   0  0  0  0  0  0  0  0  0  0  0  0
   28.4781  -29.2662    0.0000 C   0  0  0  0  0  0  0  0  0  0  0  0
   28.4781  -28.2732    0.0000 C   0  0  0  0  0  0  0  0  0  0  0  0
   27.7017  -27.6541    0.0000 C   0  0  0  0  0  0  0  0  0  0  0  0
   27.7017  -26.6610    0.0000 C   0  0  0  0  0  0  0  0  0  0  0  0
   28.4780  -26.0418    0.0000 C   0  0  0  0  0  0  0  0  0  0  0  0
   29.4462  -28.0520    0.0000 O   0  0  0  0  0  0  0  0  0  0  0  0
   29.8771  -27.1573    0.0000 C   0  0  0  0  0  0  0  0  0  0  0  0
   29.4461  -26.2626    0.0000 C   0  0  0  0  0  0  0  0  0  0  0  0
   28.5880  -27.1546    0.0000 O   0  0  0  0  0  0  0  0  0  0  0  0
   26.8070  -26.2302    0.0000 C   0  0  0  0  0  0  0  0  0  0  0  0
   30.0653  -25.4861    0.0000 C   0  0  0  0  0  0  0  0  0  0  0  0
   30.7371  -26.6607    0.0000 C   0  0  0  0  0  0  0  0  0  0  0  0
   31.5971  -27.1573    0.0000 C   0  0  0  0  0  0  0  0  0  0  0  0
   32.4571  -26.6608    0.0000 C   0  0  0  0  0  0  0  0  0  0  0  0
   33.3171  -27.1573    0.0000 C   0  0  0  0  0  0  0  0  0  0  0  0
   34.1771  -26.6608    0.0000 C   0  0  0  0  0  0  0  0  0  0  0  0
   35.0371  -27.1573    0.0000 C   0  0  0  0  0  0  0  0  0  0  0  0
   35.8970  -26.6608    0.0000 C   0  0  0  0  0  0  0  0  0  0  0  0
   31.5971  -28.1504    0.0000 C   0  0  0  0  0  0  0  0  0  0  0  0
   36.7570  -27.1573    0.0000 C   0  0  0  0  0  0  0  0  0  0  0  0
   36.7570  -28.1504    0.0000 O   0  0  0  0  0  0  0  0  0  0  0  0
   37.6170  -26.6608    0.0000 C   0  0  0  0  0  0  0  0  0  0  0  0
   37.6170  -25.6678    0.0000 C   0  0  0  0  0  0  0  0  0  0  0  0
   36.7569  -25.1713    0.0000 C   0  0  0  0  0  0  0  0  0  0  0  0
   36.7569  -24.1782    0.0000 C   0  0  0  0  0  0  0  0  0  0  0  0
   35.8969  -23.6817    0.0000 C   0  0  0  0  0  0  0  0  0  0  0  0
   35.8969  -25.6678    0.0000 O   0  0  0  0  0  0  0  0  0  0  0  0
   35.0370  -24.1782    0.0000 O   0  0  0  0  0  0  0  0  0  0  0  0
   35.8969  -22.6887    0.0000 C   0  0  0  0  0  0  0  0  0  0  0  0
   35.0368  -22.1922    0.0000 C   0  0  0  0  0  0  0  0  0  0  0  0
   34.1768  -22.6887    0.0000 C   0  0  0  0  0  0  0  0  0  0  0  0
   34.1768  -23.6817    0.0000 C   0  0  0  0  0  0  0  0  0  0  0  0
   38.4770  -27.1573    0.0000 O   0  0  0  0  0  0  0  0  0  0  0  0
   38.4770  -25.1713    0.0000 O   0  0  0  0  0  0  0  0  0  0  0  0
   36.7569  -22.1922    0.0000 O   0  0  0  0  0  0  0  0  0  0  0  0
   35.0368  -21.1992    0.0000 O   0  0  0  0  0  0  0  0  0  0  0  0
   37.6169  -23.6817    0.0000 O   0  0  0  0  0  0  0  0  0  0  0  0
   35.9101  -24.6780    0.0000 H   0  0  0  0  0  0  0  0  0  0  0  0
   33.3525  -22.0110    0.0000 O   0  0  0  0  0  0  0  0  0  0  0  0
   19.5571  -24.1783    0.0000 C   0  0  0  0  0  0  0  0  0  0  0  0
   20.4171  -23.6818    0.0000 C   0  0  0  0  0  0  0  0  0  0  0  0
   21.2770  -24.1783    0.0000 N   0  0  0  0  0  0  0  0  0  0  0  0
   22.1371  -23.6818    0.0000 C   0  0  0  0  0  0  0  0  0  0  0  0
   22.9971  -24.1783    0.0000 C   0  0  0  0  0  0  0  0  0  0  0  0
   23.8570  -23.6818    0.0000 C   0  0  0  0  0  0  0  0  0  0  0  0
   24.7170  -24.1783    0.0000 N   0  0  0  0  0  0  0  0  0  0  0  0
   25.5770  -23.6818    0.0000 C   0  0  0  0  0  0  0  0  0  0  0  0
   26.4370  -24.1782    0.0000 C   0  0  0  0  0  0  0  0  0  0  0  0
   27.2970  -23.6817    0.0000 C   0  0  0  0  0  0  0  0  0  0  0  0
   28.1570  -24.1782    0.0000 C   0  0  0  0  0  0  0  0  0  0  0  0
   29.0170  -23.6817    0.0000 C   0  0  0  0  0  0  0  0  0  0  0  0
   29.8770  -24.1782    0.0000 C   0  0  0  0  0  0  0  0  0  0  0  0
   30.7369  -23.6817    0.0000 C   0  0  0  0  0  0  0  0  0  0  0  0
   31.5969  -24.1782    0.0000 C   0  0  0  0  0  0  0  0  0  0  0  0
   32.4569  -23.6817    0.0000 C   0  0  0  0  0  0  0  0  0  0  0  0
   33.3169  -24.1782    0.0000 C   0  0  0  0  0  0  0  0  0  0  0  0
   32.4569  -22.6887    0.0000 O   0  0  0  0  0  0  0  0  0  0  0  0
   31.5969  -25.1713    0.0000 O   0  0  0  0  0  0  0  0  0  0  0  0
   30.7369  -22.6887    0.0000 C   0  0  0  0  0  0  0  0  0  0  0  0
   29.0170  -22.6887    0.0000 O   0  0  0  0  0  0  0  0  0  0  0  0
   27.2970  -22.6887    0.0000 C   0  0  0  0  0  0  0  0  0  0  0  0
   26.4370  -25.1713    0.0000 O   0  0  0  0  0  0  0  0  0  0  0  0
   25.5770  -22.6888    0.0000 O   0  0  0  0  0  0  0  0  0  0  0  0
   22.1371  -22.6888    0.0000 O   0  0  0  0  0  0  0  0  0  0  0  0
   18.6971  -23.6818    0.0000 C   0  0  0  0  0  0  0  0  0  0  0  0
   17.8371  -24.1783    0.0000 O   0  0  0  0  0  0  0  0  0  0  0  0
   43.0979  -30.7558    0.0000 O   0  0  0  0  0  0  0  0  0  0  0  0
   37.9380  -30.7557    0.0000 C   0  0  0  0  0  0  0  0  0  0  0  0
   37.0780  -31.2521    0.0000 C   0  0  0  0  0  0  0  0  0  0  0  0
   36.2181  -30.7556    0.0000 C   0  0  0  0  0  0  0  0  0  0  0  0
   39.6580  -30.7558    0.0000 O   0  0  0  0  0  0  0  0  0  0  0  0
   37.0779  -32.2451    0.0000 O   0  0  0  0  0  0  0  0  0  0  0  0
   35.3929  -31.4781    0.0000 O   0  0  0  0  0  0  0  0  0  0  0  0
   34.4981  -30.7558    0.0000 O   0  0  0  0  0  0  0  0  0  0  0  0
   38.7590  -31.4676    0.0000 O   0  0  0  0  0  0  0  0  0  0  0  0
  1  2  1  0     0  0
  1  3  1  0     0  0
  2  4  1  0     0  0
  3  5  1  0     0  0
  4  5  1  0     0  0
  5  6  1  6     0  0
  6  7  1  0     0  0
  2  8  1  1     0  0
  1  9  1  1     0  0
  9 10  1  0     0  0
 11 10  1  1     0  0
 11 12  1  0     0  0
 11 13  1  0     0  0
 12 14  1  0     0  0
 13 15  1  0     0  0
 14 17  1  0     0  0
 15 16  1  0     0  0
 16 17  1  0     0  0
 12 18  1  1     0  0
 15 18  1  1     0  0
 19 20  1  0     0  0
 19 21  1  0     0  0
 17 21  1  1     0  0
 19 23  1  1     0  0
 20 24  1  6     0  0
 20 22  1  0     0  0
 26 27  1  1     0  0
 22 27  2  0     0  0
 28 29  1  0     0  0
 28 25  1  0     0  0
 29 30  1  0     0  0
 25 26  1  0     0  0
 30 31  1  0     0  0
 26 31  1  0     0  0
 31 32  1  6     0  0
 30 33  1  1     0  0
 29 34  1  6     0  0
 28 35  1  6     0  0
 36 38  1  6     0  0
 37 39  1  0     0  0
 39 35  1  0     0  0
 41 36  1  0     0  0
 37 42  1  6     0  0
 36 37  1  0     0  0
 44 40  1  0     0  0
 40 41  1  0     0  0
 41 45  1  1     0  0
 46 48  2  0     0  0
 48 43  1  0     0  0
 43 44  1  0     0  0
 50 49  1  1     0  0
 51 47  1  0     0  0
 46 47  1  0     0  0
 50 52  1  0     0  0
 50 51  1  0     0  0
 52 53  1  0     0  0
 51 54  1  6     0  0
 53 55  1  0     0  0
 39 56  1  6     0  0
 43 57  2  0     0  0
 52 58  1  6     0  0
 55 59  2  0     0  0
 59 62  1  0     0  0
 61 63  1  0     0  0
 62 63  2  0     0  0
 61 60  1  1     0  0
 65 66  1  1     0  0
 61 66  1  0     0  0
 67 68  1  0     0  0
 67 64  1  0     0  0
 68 69  1  0     0  0
 64 65  1  0     0  0
 69 70  1  0     0  0
 65 70  1  0     0  0
 64 71  1  6     0  0
 67 72  1  1     0  0
 68 73  1  6     0  0
 74 75  1  0     0  0
 75 76  1  0     0  0
 69 74  1  1     0  0
 79 78  1  6     0  0
 78 76  1  0     0  0
 76 77  1  1     0  0
 75 81  1  1     0  0
 82 83  1  0     0  0
 82 79  1  0     0  0
 83 84  1  0     0  0
 79 80  1  0     0  0
 80 85  1  0     0  0
 82 86  1  1     0  0
 83 87  1  6     0  0
 84 85  1  0     0  0
 85 89  1  0     0  0
 90 88  1  6     0  0
 89 90  1  0     0  0
 89 91  1  1     0  0
 85 92  1  6     0  0
 94 93  1  0     0  0
 95 94  1  0     0  0
 96 95  1  0     0  0
 97 96  1  0     0  0
 98 97  1  0     0  0
 99 98  1  0     0  0
100 99  1  0     0  0
101100  1  1     0  0
104103  1  0     0  0
105104  1  0     0  0
106105  1  0     0  0
107106  1  0     0  0
108107  2  0     0  0
109108  1  0     0  0
110109  1  0     0  0
111110  1  0     0  0
 90111  1  0     0  0
106112  1  1     0  0
103113  1  6     0  0
 93114  1  0     0  0
114115  1  0     0  0
116117  1  0     0  0
116115  1  0     0  0
117118  1  0     0  0
115119  1  0     0  0
118121  1  0     0  0
119120  1  0     0  0
120121  1  0     0  0
121122  1  1     0  0
115122  1  1     0  0
117123  1  1     0  0
121124  1  0     0  0
120125  1  1     0  0
126125  1  0     0  0
127126  1  0     0  0
128127  1  0     0  0
129128  1  0     0  0
130129  1  0     0  0
131130  1  0     0  0
126132  1  6     0  0
133134  1  6     0  0
136135  1  0     0  0
136137  1  0     0  0
135133  1  0     0  0
133131  1  0     0  0
138137  1  0     0  0
138139  1  0     0  0
137140  1  1     0  0
142139  1  0     0  0
142143  1  0     0  0
139141  1  0     0  0
143144  1  0     0  0
141145  1  0     0  0
144145  1  0     0  0
135146  1  1     0  0
136147  1  1     0  0
142148  1  6     0  0
143149  1  1     0  0
138150  1  1     0  0
139151  1  6     0  0
144152  1  6     0  0
154153  1  0     0  0
155154  1  0     0  0
156155  1  0     0  0
157156  1  0     0  0
158157  2  0     0  0
159158  1  0     0  0
160159  1  0     0  0
161160  1  0     0  0
162161  1  0     0  0
163162  1  0     0  0
164163  1  0     0  0
165164  1  0     0  0
166165  2  0     0  0
167166  1  0     0  0
168167  1  0     0  0
169168  1  0     0  0
145169  1  6     0  0
168170  1  1     0  0
167171  1  6     0  0
166172  1  0     0  0
164173  1  1     0  0
162174  1  6     0  0
161175  1  6     0  0
160176  2  0     0  0
156177  2  0     0  0
153178  1  0     0  0
178179  1  0     0  0
109180  1  6     0  0
103181  1  0     0  0
103102  1  0     0  0
181182  1  0     0  0
102101  1  0     0  0
182183  1  0     0  0
101183  1  0     0  0
105184  1  1     0  0
182185  1  6     0  0
183186  1  1     0  0
 99187  1  1     0  0
181188  1  6     0  0
M  END
> <ID>
CHEBI:146207

> <NAME>
palytoxin

$$$$

  Ketcher 04041717022D 1   1.00000     0.00000     0

  0  0  0     0  0            999 V2000
M  END> <ID>
CHEBI:149779

> <NAME>
mannogen

$$$$



80 90  0  0  1  0  0  0  0  0999 V2000
   19.2522  -16.4230    0.0000 C   0  0  0  0  0  0  0  0  0  0  0  0
   20.5135  -15.8504    0.0000 O   0  0  0  0  0  0  0  0  0  0  0  0
   22.0387  -17.8237    0.0000 C   0  0  0  0  0  0  0  0  0  0  0  0
   18.9187  -17.7807    0.0000 C   0  0  0  0  0  0  0  0  0  0  0  0
   21.1596  -18.9026    0.0000 C   0  0  0  0  0  0  0  0  0  0  0  0
   19.7693  -18.8793    0.0000 C   0  0  0  0  0  0  0  0  0  0  0  0
   21.8133  -16.3847    0.0000 C   0  0  0  0  0  0  0  0  0  0  0  0
   22.7200  -15.3376    0.0000 C   0  0  0  0  0  0  0  0  0  0  0  0
   24.5821  -17.8407    0.0000 C   0  0  0  0  0  0  0  0  0  0  0  0
   23.3092  -18.4005    0.0000 O   0  0  0  0  0  0  0  0  0  0  0  0
   24.1312  -15.4643    0.0000 C   0  0  0  0  0  0  0  0  0  0  0  0
   30.9225  -16.6179    0.0000 O   0  0  0  0  0  0  0  0  0  0  0  0
   32.3116  -16.8957    0.0000 C   0  0  0  0  0  0  0  0  0  0  0  0
   33.0756  -18.0764    0.0000 C   0  0  0  0  0  0  0  0  0  0  0  0
   32.7978  -19.4656    0.0000 C   0  0  0  0  0  0  0  0  0  0  0  0
   31.6170  -20.2296    0.0000 C   0  0  0  0  0  0  0  0  0  0  0  0
   30.2279  -19.9517    0.0000 C   0  0  0  0  0  0  0  0  0  0  0  0
   29.6723  -17.3819    0.0000 C   0  0  0  0  0  0  0  0  0  0  0  0
   29.3945  -18.7710    0.0000 C   0  0  0  0  0  0  0  0  0  0  0  0
   34.4647  -18.0070    0.0000 O   0  0  0  0  0  0  0  0  0  0  0  0
   35.0898  -16.7568    0.0000 C   0  0  0  0  0  0  0  0  0  0  0  0
   34.3258  -15.5760    0.0000 C   0  0  0  0  0  0  0  0  0  0  0  0
   32.9367  -15.6455    0.0000 C   0  0  0  0  0  0  0  0  0  0  0  0
   36.4789  -16.6873    0.0000 C   0  0  0  0  0  0  0  0  0  0  0  0
   37.1735  -15.4371    0.0000 C   0  0  0  0  0  0  0  0  0  0  0  0
   36.3400  -14.2564    0.0000 C   0  0  0  0  0  0  0  0  0  0  0  0
   34.9509  -14.3258    0.0000 O   0  0  0  0  0  0  0  0  0  0  0  0
   38.5626  -15.2982    0.0000 O   0  0  0  0  0  0  0  0  0  0  0  0
   39.1877  -14.0480    0.0000 C   0  0  0  0  0  0  0  0  0  0  0  0
   38.4237  -12.9367    0.0000 C   0  0  0  0  0  0  0  0  0  0  0  0
   37.0346  -13.0062    0.0000 C   0  0  0  0  0  0  0  0  0  0  0  0
   36.2011  -11.8254    0.0000 O   0  0  0  0  0  0  0  0  0  0  0  0
   40.5768  -13.9786    0.0000 C   0  0  0  0  0  0  0  0  0  0  0  0
   31.9643  -15.5760    0.0000 H   0  0  0  0  0  0  0  0  0  0  0  0
   41.4103  -15.1593    0.0000 C   0  0  0  0  0  0  0  0  0  0  0  0
   42.7994  -15.0898    0.0000 C   0  0  0  0  0  0  0  0  0  0  0  0
   40.7157  -16.4790    0.0000 C   0  0  0  0  0  0  0  0  0  0  0  0
   39.3266  -16.5484    0.0000 O   0  0  0  0  0  0  0  0  0  0  0  0
   33.6312  -14.3953    0.0000 H   0  0  0  0  0  0  0  0  0  0  0  0
   40.1601  -13.0756    0.0000 H   0  0  0  0  0  0  0  0  0  0  0  0
   35.6455  -13.0062    0.0000 C   0  0  0  0  0  0  0  0  0  0  0  0
   38.1459  -16.4095    0.0000 H   0  0  0  0  0  0  0  0  0  0  0  0
   35.7844  -17.9375    0.0000 H   0  0  0  0  0  0  0  0  0  0  0  0
   33.7702  -19.2572    0.0000 H   0  0  0  0  0  0  0  0  0  0  0  0
   28.6289  -16.4649    0.0000 C   0  0  0  0  0  0  0  0  0  0  0  0
   27.3130  -16.9100    0.0000 C   0  0  0  0  0  0  0  0  0  0  0  0
   27.0351  -18.2991    0.0000 C   0  0  0  0  0  0  0  0  0  0  0  0
   28.0786  -19.2161    0.0000 O   0  0  0  0  0  0  0  0  0  0  0  0
   26.2695  -15.9931    0.0000 O   0  0  0  0  0  0  0  0  0  0  0  0
   24.9537  -16.4382    0.0000 C   0  0  0  0  0  0  0  0  0  0  0  0
   25.7193  -18.7443    0.0000 C   0  0  0  0  0  0  0  0  0  0  0  0
   18.2497  -15.4615    0.0000 C   0  0  0  0  0  0  0  0  0  0  0  0
   16.9157  -15.8490    0.0000 C   0  0  0  0  0  0  0  0  0  0  0  0
   16.5822  -17.2067    0.0000 C   0  0  0  0  0  0  0  0  0  0  0  0
   17.5847  -18.1681    0.0000 O   0  0  0  0  0  0  0  0  0  0  0  0
   15.9131  -14.8875    0.0000 O   0  0  0  0  0  0  0  0  0  0  0  0
   14.5792  -15.2750    0.0000 C   0  0  0  0  0  0  0  0  0  0  0  0
   14.2457  -16.6327    0.0000 C   0  0  0  0  0  0  0  0  0  0  0  0
   15.2482  -17.5941    0.0000 C   0  0  0  0  0  0  0  0  0  0  0  0
   13.5766  -14.3134    0.0000 C   0  0  0  0  0  0  0  0  0  0  0  0
   12.2427  -14.7010    0.0000 C   0  0  0  0  0  0  0  0  0  0  0  0
   11.9091  -16.0587    0.0000 C   0  0  0  0  0  0  0  0  0  0  0  0
   12.9116  -17.0201    0.0000 O   0  0  0  0  0  0  0  0  0  0  0  0
   10.5581  -16.4511    0.0000 O   0  0  0  0  0  0  0  0  0  0  0  0
   13.9039  -12.7720    0.0000 C   0  0  0  0  0  0  0  0  0  0  0  0
   29.0350  -20.1128    0.0000 C   0  0  0  0  0  0  0  0  0  0  0  0
   26.6757  -19.6409    0.0000 H   0  0  0  0  0  0  0  0  0  0  0  0
   24.2226  -19.1825    0.0000 H   0  0  0  0  0  0  0  0  0  0  0  0
   22.3983  -19.1655    0.0000 H   0  0  0  0  0  0  0  0  0  0  0  0
   18.5592  -19.1224    0.0000 H   0  0  0  0  0  0  0  0  0  0  0  0
   16.2227  -18.5484    0.0000 H   0  0  0  0  0  0  0  0  0  0  0  0
   13.8861  -17.9744    0.0000 H   0  0  0  0  0  0  0  0  0  0  0  0
   14.9387  -13.9332    0.0000 H   0  0  0  0  0  0  0  0  0  0  0  0
   17.2752  -14.5072    0.0000 C   0  0  0  0  0  0  0  0  0  0  0  0
   19.6118  -15.0812    0.0000 H   0  0  0  0  0  0  0  0  0  0  0  0
   21.4538  -15.0429    0.0000 H   0  0  0  0  0  0  0  0  0  0  0  0
   25.3131  -15.0964    0.0000 C   0  0  0  0  0  0  0  0  0  0  0  0
   27.6724  -15.5682    0.0000 C   0  0  0  0  0  0  0  0  0  0  0  0
   29.6723  -15.9928    0.0000 H   0  0  0  0  0  0  0  0  0  0  0  0
   21.7424  -20.1563    0.0000 C   0  0  0  0  0  0  0  0  0  0  0  0
  1  4  1  0     0  0
  3  5  1  0     0  0
  4  6  1  0     0  0
  1  2  1  0     0  0
  5  6  1  0     0  0
  7  8  1  0     0  0
  9 10  1  0     0  0
  8 11  1  0     0  0
 13 12  1  0     0  0
 13 14  1  0     0  0
 14 15  1  0     0  0
 15 16  2  0     0  0
 16 17  1  0     0  0
 18 12  1  0     0  0
 17 19  1  0     0  0
 18 19  1  0     0  0
 14 20  1  0     0  0
 21 20  1  0     0  0
 21 22  1  0     0  0
 22 23  1  0     0  0
 13 23  1  0     0  0
 21 24  1  0     0  0
 24 25  1  0     0  0
 25 26  1  0     0  0
 26 27  1  0     0  0
 22 27  1  0     0  0
 25 28  1  0     0  0
 28 29  1  0     0  0
 29 30  1  0     0  0
 30 31  1  0     0  0
 26 31  1  0     0  0
 31 32  1  1     0  0
 29 33  1  0     0  0
 13 34  1  6     0  0
 33 35  1  0     0  0
 35 36  2  0     0  0
 35 37  1  0     0  0
 37 38  2  0     0  0
 22 39  1  6     0  0
 29 40  1  6     0  0
 26 41  1  6     0  0
 25 42  1  1     0  0
 21 43  1  1     0  0
 14 44  1  1     0  0
 18 45  1  0     0  0
 45 46  1  0     0  0
 46 47  1  0     0  0
 47 48  1  0     0  0
 19 48  1  0     0  0
 46 49  1  0     0  0
 49 50  1  0     0  0
 47 51  1  0     0  0
 11 50  1  0     0  0
  9 51  1  0     0  0
 50  9  1  0     0  0
  2  7  1  0     0  0
  7  3  1  0     0  0
  3 10  1  0     0  0
  1 52  1  0     0  0
 52 53  1  0     0  0
 53 54  1  0     0  0
 54 55  1  0     0  0
  4 55  1  0     0  0
 53 56  1  0     0  0
 56 57  1  0     0  0
 57 58  1  0     0  0
 58 59  1  0     0  0
 54 59  1  0     0  0
 57 60  1  0     0  0
 60 61  2  0     0  0
 61 62  1  0     0  0
 62 63  1  0     0  0
 58 63  1  0     0  0
 62 64  2  0     0  0
 60 65  1  0     0  0
 19 66  1  1     0  0
 47 67  1  1     0  0
  9 68  1  1     0  0
  3 69  1  1     0  0
  4 70  1  1     0  0
 54 71  1  1     0  0
 58 72  1  1     0  0
 57 73  1  6     0  0
 53 74  1  6     0  0
  1 75  1  6     0  0
  7 76  1  6     0  0
 50 77  1  6     0  0
 46 78  1  6     0  0
 18 79  1  6     0  0
  5 80  1  6     0  0
M  END
> <ID>
CHEBI:80770

> <NAME>
Brevetoxin B

$$$$

Ketcher 10261709242D 1   1.00000     0.00000     0

 87 97  0     1  0            999 V2000
   16.2659  -16.3160    0.0000 C   0  0  0  0  0  0  0  0  0  0  0  0
   17.0166  -15.7154    0.0000 O   0  0  0  0  0  0  0  0  0  0  0  0
   18.4180  -16.8165    0.0000 C   0  0  0  0  0  0  0  0  0  0  0  0
   16.2659  -17.3169    0.0000 C   0  0  0  0  0  0  0  0  0  0  0  0
   18.0176  -17.7173    0.0000 C   0  0  0  0  0  0  0  0  0  0  0  0
   17.0166  -17.9175    0.0000 C   0  0  0  0  0  0  0  0  0  0  0  0
   18.0176  -15.8655    0.0000 C   0  0  0  0  0  0  0  0  0  0  0  0
   18.4681  -14.9646    0.0000 C   0  0  0  0  0  0  0  0  0  0  0  0
   20.2198  -16.3660    0.0000 C   0  0  0  0  0  0  0  0  0  0  0  0
   19.4190  -16.9666    0.0000 O   0  0  0  0  0  0  0  0  0  0  0  0
   19.4690  -14.8145    0.0000 C   0  0  0  0  0  0  0  0  0  0  0  0
   24.3738  -14.3641    0.0000 O   0  0  0  0  0  0  0  0  0  0  0  0
   25.3748  -14.3641    0.0000 C   0  0  0  0  0  0  0  0  0  0  0  0
   26.1756  -15.0147    0.0000 C   0  0  0  0  0  0  0  0  0  0  0  0
   26.1756  -16.0657    0.0000 C   0  0  0  0  0  0  0  0  0  0  0  0
   25.4749  -16.8165    0.0000 C   0  0  0  0  0  0  0  0  0  0  0  0
   24.4739  -16.8165    0.0000 C   0  0  0  0  0  0  0  0  0  0  0  0
   23.6732  -15.1648    0.0000 C   0  0  0  0  0  0  0  0  0  0  0  0
   23.6732  -16.1658    0.0000 C   0  0  0  0  0  0  0  0  0  0  0  0
   27.0765  -14.7644    0.0000 O   0  0  0  0  0  0  0  0  0  0  0  0
   27.2767  -13.7635    0.0000 C   0  0  0  0  0  0  0  0  0  0  0  0
   26.5259  -13.0628    0.0000 C   0  0  0  0  0  0  0  0  0  0  0  0
   25.5750  -13.3631    0.0000 C   0  0  0  0  0  0  0  0  0  0  0  0
   28.2276  -13.4632    0.0000 C   0  0  0  0  0  0  0  0  0  0  0  0
   28.4779  -12.5122    0.0000 C   0  0  0  0  0  0  0  0  0  0  0  0
   27.6771  -11.8116    0.0000 C   0  0  0  0  0  0  0  0  0  0  0  0
   26.7261  -12.1118    0.0000 O   0  0  0  0  0  0  0  0  0  0  0  0
   29.4288  -12.1619    0.0000 O   0  0  0  0  0  0  0  0  0  0  0  0
   29.6290  -11.1609    0.0000 C   0  0  0  0  0  0  0  0  0  0  0  0
   28.9283  -10.5603    0.0000 C   0  0  0  0  0  0  0  0  0  0  0  0
   27.9774  -10.8106    0.0000 C   0  0  0  0  0  0  0  0  0  0  0  0
   27.1766  -10.1599    0.0000 O   0  0  0  0  0  0  0  0  0  0  0  0
   24.9244  -13.5132    0.0000 H   0  0  0  0  0  0  0  0  0  0  0  0
   25.8253  -12.4121    0.0000 H   0  0  0  0  0  0  0  0  0  0  0  0
   26.9764  -11.0608    0.0000 C   0  0  0  0  0  0  0  0  0  0  0  0
   29.3287  -13.0127    0.0000 H   0  0  0  0  0  0  0  0  0  0  0  0
   27.9774  -14.4641    0.0000 H   0  0  0  0  0  0  0  0  0  0  0  0
   26.7762  -15.7154    0.0000 H   0  0  0  0  0  0  0  0  0  0  0  0
   22.7222  -14.7144    0.0000 C   0  0  0  0  0  0  0  0  0  0  0  0
   21.9715  -15.2149    0.0000 C   0  0  0  0  0  0  0  0  0  0  0  0
   21.9715  -16.2659    0.0000 C   0  0  0  0  0  0  0  0  0  0  0  0
   22.8724  -16.7164    0.0000 O   0  0  0  0  0  0  0  0  0  0  0  0
   21.0206  -14.7644    0.0000 O   0  0  0  0  0  0  0  0  0  0  0  0
   20.2198  -15.3150    0.0000 C   0  0  0  0  0  0  0  0  0  0  0  0
   21.1207  -16.7664    0.0000 C   0  0  0  0  0  0  0  0  0  0  0  0
   15.3650  -15.8155    0.0000 C   0  0  0  0  0  0  0  0  0  0  0  0
   14.5142  -16.3160    0.0000 C   0  0  0  0  0  0  0  0  0  0  0  0
   14.5142  -17.3169    0.0000 C   0  0  0  0  0  0  0  0  0  0  0  0
   15.4151  -17.8174    0.0000 O   0  0  0  0  0  0  0  0  0  0  0  0
   13.6634  -15.8155    0.0000 O   0  0  0  0  0  0  0  0  0  0  0  0
   12.8125  -16.3160    0.0000 C   0  0  0  0  0  0  0  0  0  0  0  0
   12.8125  -17.3169    0.0000 C   0  0  0  0  0  0  0  0  0  0  0  0
   13.6634  -17.8174    0.0000 C   0  0  0  0  0  0  0  0  0  0  0  0
   11.9617  -15.8655    0.0000 C   0  0  0  0  0  0  0  0  0  0  0  0
   11.1109  -16.3660    0.0000 C   0  0  0  0  0  0  0  0  0  0  0  0
   11.1109  -17.3670    0.0000 C   0  0  0  0  0  0  0  0  0  0  0  0
   11.9617  -17.8174    0.0000 O   0  0  0  0  0  0  0  0  0  0  0  0
   10.2100  -17.8675    0.0000 O   0  0  0  0  0  0  0  0  0  0  0  0
   11.9617  -14.7144    0.0000 C   0  0  0  0  0  0  0  0  0  0  0  0
   23.6732  -17.1668    0.0000 C   0  0  0  0  0  0  0  0  0  0  0  0
   21.9715  -17.2669    0.0000 H   0  0  0  0  0  0  0  0  0  0  0  0
   20.1697  -17.3670    0.0000 H   0  0  0  0  0  0  0  0  0  0  0  0
   18.9185  -17.6673    0.0000 H   0  0  0  0  0  0  0  0  0  0  0  0
   16.2159  -18.3179    0.0000 H   0  0  0  0  0  0  0  0  0  0  0  0
   14.5142  -18.3179    0.0000 H   0  0  0  0  0  0  0  0  0  0  0  0
   12.8125  -18.3179    0.0000 H   0  0  0  0  0  0  0  0  0  0  0  0
   12.8125  -15.3650    0.0000 H   0  0  0  0  0  0  0  0  0  0  0  0
   14.5142  -15.3150    0.0000 C   0  0  0  0  0  0  0  0  0  0  0  0
   16.2659  -15.3150    0.0000 H   0  0  0  0  0  0  0  0  0  0  0  0
   17.5171  -14.9646    0.0000 H   0  0  0  0  0  0  0  0  0  0  0  0
   20.2198  -14.3140    0.0000 C   0  0  0  0  0  0  0  0  0  0  0  0
   21.9214  -14.2640    0.0000 C   0  0  0  0  0  0  0  0  0  0  0  0
   23.3729  -14.2139    0.0000 H   0  0  0  0  0  0  0  0  0  0  0  0
   18.6182  -18.4681    0.0000 C   0  0  0  0  0  0  0  0  0  0  0  0
   30.4958  -10.6604    0.0000 C   0  0  0  0  0  0  0  0  0  0  0  0
   31.3628  -11.1609    0.0000 C   0  0  0  0  0  0  0  0  0  0  0  0
   32.2296  -10.6604    0.0000 C   0  0  0  0  0  0  0  0  0  0  0  0
   33.0964  -11.1609    0.0000 N   0  0  0  0  0  0  0  0  0  0  0  0
   33.9634  -10.6604    0.0000 C   0  0  0  0  0  0  0  0  0  0  0  0
   34.8302  -11.1609    0.0000 C   0  0  0  0  0  0  0  0  0  0  0  0
   35.6971  -10.6604    0.0000 S   0  0  0  0  0  0  0  0  0  0  0  0
   29.6290  -10.1599    0.0000 H   0  0  0  0  0  0  0  0  0  0  0  0
   31.3628  -12.1618    0.0000 C   0  0  0  0  0  0  0  0  0  0  0  0
   32.2296   -9.6594    0.0000 O   0  0  0  0  0  0  0  0  0  0  0  0
   36.5640  -10.1599    0.0000 O   0  0  0  0  0  0  0  0  0  0  0  0
   36.1976  -11.5273    0.0000 O   0  0  0  0  0  0  0  0  0  0  0  0
   35.1966   -9.7936    0.0000 O   0  0  0  0  0  0  0  0  0  0  0  0
  1  4  1  0     0  0
  3  5  1  0     0  0
  4  6  1  0     0  0
  1  2  1  0     0  0
  5  6  1  0     0  0
  7  8  1  0     0  0
  9 10  1  0     0  0
  8 11  1  0     0  0
 13 12  1  0     0  0
 13 14  1  0     0  0
 14 15  1  0     0  0
 15 16  2  0     0  0
 16 17  1  0     0  0
 18 12  1  0     0  0
 17 19  1  0     0  0
 18 19  1  0     0  0
 14 20  1  0     0  0
 21 20  1  0     0  0
 21 22  1  0     0  0
 22 23  1  0     0  0
 13 23  1  0     0  0
 21 24  1  0     0  0
 24 25  1  0     0  0
 25 26  1  0     0  0
 26 27  1  0     0  0
 22 27  1  0     0  0
 25 28  1  0     0  0
 28 29  1  0     0  0
 29 30  1  0     0  0
 30 31  1  0     0  0
 26 31  1  0     0  0
 31 32  1  1     0  0
 13 33  1  6     0  0
 22 34  1  6     0  0
 26 35  1  6     0  0
 25 36  1  1     0  0
 21 37  1  1     0  0
 14 38  1  1     0  0
 18 39  1  0     0  0
 39 40  1  0     0  0
 40 41  1  0     0  0
 41 42  1  0     0  0
 19 42  1  0     0  0
 40 43  1  0     0  0
 43 44  1  0     0  0
 41 45  1  0     0  0
 11 44  1  0     0  0
  9 45  1  0     0  0
 44  9  1  0     0  0
  2  7  1  0     0  0
  7  3  1  0     0  0
  3 10  1  0     0  0
  1 46  1  0     0  0
 46 47  1  0     0  0
 47 48  1  0     0  0
 48 49  1  0     0  0
  4 49  1  0     0  0
 47 50  1  0     0  0
 50 51  1  0     0  0
 51 52  1  0     0  0
 52 53  1  0     0  0
 48 53  1  0     0  0
 51 54  1  0     0  0
 54 55  2  0     0  0
 55 56  1  0     0  0
 56 57  1  0     0  0
 52 57  1  0     0  0
 56 58  2  0     0  0
 54 59  1  0     0  0
 19 60  1  1     0  0
 41 61  1  1     0  0
  9 62  1  1     0  0
  3 63  1  1     0  0
  4 64  1  1     0  0
 48 65  1  1     0  0
 52 66  1  1     0  0
 51 67  1  6     0  0
 47 68  1  6     0  0
  1 69  1  6     0  0
  7 70  1  6     0  0
 44 71  1  6     0  0
 40 72  1  6     0  0
 18 73  1  6     0  0
  5 74  1  6     0  0
 29 75  1  1     0  0
 75 76  1  0     0  0
 76 77  1  0     0  0
 77 78  1  0     0  0
 78 79  1  0     0  0
 79 80  1  0     0  0
 80 81  1  0     0  0
 29 82  1  6     0  0
 76 83  2  0     0  0
 77 84  2  0     0  0
 81 85  1  0     0  0
 81 86  2  0     0  0
 81 87  2  0     0  0
M  END
> <ID>
CHEBI:138845

> <NAME>
Brevetoxin B1

$$$$
13988278
  CDK     1106202311

 78 88  0  0  0  0  0  0  0  0999 V2000
   16.1136    6.0845    0.0000 S   0  0  0  0  0  0  0  0  0  0  0  0
   17.6077    2.4729    0.0000 S   0  0  0  0  0  0  0  0  0  0  0  0
    6.5573    5.0040    0.0000 O   0  0  0  0  0  0  0  0  0  0  0  0
    6.0652    2.8783    0.0000 O   0  0  0  0  0  0  0  0  0  0  0  0
    3.9395    2.3862    0.0000 O   0  0  0  0  0  0  0  0  0  0  0  0
    8.4709    3.9217    0.0000 O   0  0  0  0  0  0  0  0  0  0  0  0
    4.9284    0.4015    0.0000 O   0  0  0  0  0  0  0  0  0  0  0  0
    2.7382   -0.3320    0.0000 O   0  0  0  0  0  0  0  0  0  0  0  0
    9.9192    5.5929    0.0000 O   0  0  0  0  0  0  0  0  0  0  0  0
   11.3101    3.8048    0.0000 O   0  0  0  0  0  0  0  0  0  0  0  0
   12.9538    5.4979    0.0000 O   0  0  0  0  0  0  0  0  0  0  0  0
    2.6228    1.3664    0.0000 O   0  0  0  0  0  0  0  0  0  0  0  0
    3.8112   -2.4854    0.0000 O   0  0  0  0  0  0  0  0  0  0  0  0
   14.4629    3.5578    0.0000 O   0  0  0  0  0  0  0  0  0  0  0  0
   16.0733    5.2934    0.0000 O   0  0  0  0  0  0  0  0  0  0  0  0
    3.9671   -3.7372    0.0000 O   0  0  0  0  0  0  0  0  0  0  0  0
   17.2525    3.1809    0.0000 O   0  0  0  0  0  0  0  0  0  0  0  0
   16.1538    6.8755    0.0000 O   0  0  0  0  0  0  0  0  0  0  0  0
   16.9046    6.0441    0.0000 O   0  0  0  0  0  0  0  0  0  0  0  0
   15.3226    6.1248    0.0000 O   0  0  0  0  0  0  0  0  0  0  0  0
   17.9628    1.7649    0.0000 O   0  0  0  0  0  0  0  0  0  0  0  0
   18.3156    2.8281    0.0000 O   0  0  0  0  0  0  0  0  0  0  0  0
   16.8997    2.1177    0.0000 O   0  0  0  0  0  0  0  0  0  0  0  0
    6.0652    4.3418    0.0000 C   0  0  0  0  0  0  0  0  0  0  0  0
    7.3761    4.9026    0.0000 C   0  0  0  0  0  0  0  0  0  0  0  0
    6.3683    3.6101    0.0000 C   0  0  0  0  0  0  0  0  0  0  0  0
    7.6919    4.1404    0.0000 C   0  0  0  0  0  0  0  0  0  0  0  0
    5.3334    2.5751    0.0000 C   0  0  0  0  0  0  0  0  0  0  0  0
    4.0409    1.5674    0.0000 C   0  0  0  0  0  0  0  0  0  0  0  0
    3.4567    0.2020    0.0000 C   0  0  0  0  0  0  0  0  0  0  0  0
    4.6017    2.8783    0.0000 C   0  0  0  0  0  0  0  0  0  0  0  0
    4.8031    1.2517    0.0000 C   0  0  0  0  0  0  0  0  0  0  0  0
    7.1845    3.4897    0.0000 C   0  0  0  0  0  0  0  0  0  0  0  0
    3.3511    1.0548    0.0000 C   0  0  0  0  0  0  0  0  0  0  0  0
    4.2507   -0.1270    0.0000 C   0  0  0  0  0  0  0  0  0  0  0  0
    5.4537    1.7589    0.0000 C   0  0  0  0  0  0  0  0  0  0  0  0
    9.1290    4.3925    0.0000 C   0  0  0  0  0  0  0  0  0  0  0  0
    4.2986    3.6101    0.0000 C   0  0  0  0  0  0  0  0  0  0  0  0
    5.3334    4.6450    0.0000 C   0  0  0  0  0  0  0  0  0  0  0  0
    9.1733    5.2005    0.0000 C   0  0  0  0  0  0  0  0  0  0  0  0
    7.7723    5.6082    0.0000 C   0  0  0  0  0  0  0  0  0  0  0  0
   10.5824    4.2960    0.0000 C   0  0  0  0  0  0  0  0  0  0  0  0
    4.6017    4.3418    0.0000 C   0  0  0  0  0  0  0  0  0  0  0  0
   10.6285    5.1376    0.0000 C   0  0  0  0  0  0  0  0  0  0  0  0
    8.5706    5.7405    0.0000 C   0  0  0  0  0  0  0  0  0  0  0  0
    9.8276    3.9209    0.0000 C   0  0  0  0  0  0  0  0  0  0  0  0
    4.3812   -1.0125    0.0000 C   0  0  0  0  0  0  0  0  0  0  0  0
   12.1443    5.0721    0.0000 C   0  0  0  0  0  0  0  0  0  0  0  0
   12.0964    4.1955    0.0000 C   0  0  0  0  0  0  0  0  0  0  0  0
    3.6752   -1.5629    0.0000 C   0  0  0  0  0  0  0  0  0  0  0  0
   11.4055    5.5464    0.0000 C   0  0  0  0  0  0  0  0  0  0  0  0
    2.8482   -1.2203    0.0000 C   0  0  0  0  0  0  0  0  0  0  0  0
    5.7621    5.0736    0.0000 C   0  0  0  0  0  0  0  0  0  0  0  0
    7.0730    5.6344    0.0000 C   0  0  0  0  0  0  0  0  0  0  0  0
    2.7249    0.5050    0.0000 C   0  0  0  0  0  0  0  0  0  0  0  0
   12.8544    3.6838    0.0000 C   0  0  0  0  0  0  0  0  0  0  0  0
   13.6733    4.0908    0.0000 C   0  0  0  0  0  0  0  0  0  0  0  0
   13.7233    5.0038    0.0000 C   0  0  0  0  0  0  0  0  0  0  0  0
    3.5065    3.6101    0.0000 C   0  0  0  0  0  0  0  0  0  0  0  0
    2.0998   -1.7765    0.0000 C   0  0  0  0  0  0  0  0  0  0  0  0
   14.5664    5.4474    0.0000 C   0  0  0  0  0  0  0  0  0  0  0  0
   15.3159    3.9816    0.0000 C   0  0  0  0  0  0  0  0  0  0  0  0
   15.3680    4.9328    0.0000 C   0  0  0  0  0  0  0  0  0  0  0  0
    3.0758   -3.0587    0.0000 C   0  0  0  0  0  0  0  0  0  0  0  0
    2.2144   -2.7019    0.0000 C   0  0  0  0  0  0  0  0  0  0  0  0
   16.1066    3.9353    0.0000 C   0  0  0  0  0  0  0  0  0  0  0  0
    3.1822   -3.8436    0.0000 C   0  0  0  0  0  0  0  0  0  0  0  0
   15.6711    3.2737    0.0000 C   0  0  0  0  0  0  0  0  0  0  0  0
    1.5841   -3.1816    0.0000 C   0  0  0  0  0  0  0  0  0  0  0  0
   16.4618    3.2273    0.0000 C   0  0  0  0  0  0  0  0  0  0  0  0
    2.3973   -3.9500    0.0000 C   0  0  0  0  0  0  0  0  0  0  0  0
    3.2886   -4.6285    0.0000 C   0  0  0  0  0  0  0  0  0  0  0  0
    4.0215   -4.9288    0.0000 C   0  0  0  0  0  0  0  0  0  0  0  0
    4.1280   -5.7136    0.0000 C   0  0  0  0  0  0  0  0  0  0  0  0
    4.8609   -6.0139    0.0000 C   0  0  0  0  0  0  0  0  0  0  0  0
    3.5015   -6.1982    0.0000 C   0  0  0  0  0  0  0  0  0  0  0  0
    4.9673   -6.7988    0.0000 C   0  0  0  0  0  0  0  0  0  0  0  0
    5.7002   -7.0991    0.0000 C   0  0  0  0  0  0  0  0  0  0  0  0
  1 15  1  0  0  0  0 
  1 18  1  0  0  0  0 
  1 19  2  0  0  0  0 
  1 20  2  0  0  0  0 
  2 17  1  0  0  0  0 
  2 21  1  0  0  0  0 
  2 22  2  0  0  0  0 
  2 23  2  0  0  0  0 
  3 24  1  0  0  0  0 
  3 25  1  0  0  0  0 
  4 26  1  0  0  0  0 
  4 28  1  0  0  0  0 
  5 29  1  0  0  0  0 
  5 31  1  0  0  0  0 
  6 27  1  0  0  0  0 
  6 37  1  0  0  0  0 
  7 32  1  0  0  0  0 
  7 35  1  0  0  0  0 
  8 30  1  0  0  0  0 
  8 52  1  0  0  0  0 
  9 40  1  0  0  0  0 
  9 44  1  0  0  0  0 
 10 42  1  0  0  0  0 
 10 49  1  0  0  0  0 
 11 48  1  0  0  0  0 
 11 58  1  0  0  0  0 
 12 34  1  0  0  0  0 
 13 50  1  0  0  0  0 
 13 64  1  0  0  0  0 
 14 57  1  0  0  0  0 
 14 62  1  0  0  0  0 
 15 63  1  0  0  0  0 
 16 67  1  0  0  0  0 
 17 70  1  0  0  0  0 
 24 26  1  0  0  0  0 
 24 39  1  0  0  0  0 
 24 53  1  0  0  0  0 
 25 27  1  0  0  0  0 
 25 41  1  0  0  0  0 
 25 54  1  0  0  0  0 
 26 33  1  0  0  0  0 
 27 33  1  0  0  0  0 
 28 31  1  0  0  0  0 
 28 36  1  0  0  0  0 
 29 32  1  0  0  0  0 
 29 34  1  0  0  0  0 
 30 34  1  0  0  0  0 
 30 35  1  0  0  0  0 
 30 55  1  0  0  0  0 
 31 38  1  0  0  0  0 
 32 36  1  0  0  0  0 
 35 47  1  0  0  0  0 
 37 40  1  0  0  0  0 
 37 46  1  0  0  0  0 
 38 43  1  0  0  0  0 
 38 59  1  0  0  0  0 
 39 43  1  0  0  0  0 
 40 45  1  0  0  0  0 
 41 45  1  0  0  0  0 
 42 44  1  0  0  0  0 
 42 46  1  0  0  0  0 
 44 51  1  0  0  0  0 
 47 50  1  0  0  0  0 
 48 49  1  0  0  0  0 
 48 51  1  0  0  0  0 
 49 56  1  0  0  0  0 
 50 52  1  0  0  0  0 
 52 60  1  0  0  0  0 
 56 57  1  0  0  0  0 
 57 58  1  0  0  0  0 
 58 61  1  0  0  0  0 
 60 65  1  0  0  0  0 
 61 63  1  0  0  0  0 
 62 63  1  0  0  0  0 
 62 66  1  0  0  0  0 
 62 68  1  0  0  0  0 
 64 65  1  0  0  0  0 
 64 67  1  0  0  0  0 
 65 69  2  0  0  0  0 
 66 70  1  0  0  0  0 
 67 71  1  0  0  0  0 
 67 72  1  0  0  0  0 
 72 73  2  0  0  0  0 
 73 74  1  0  0  0  0 
 74 75  1  0  0  0  0 
 74 76  2  0  0  0  0 
 75 77  1  0  0  0  0 
 77 78  2  0  0  0  0 
M  END
> <ID>
CHEBI:166595

> <NAME>
Yessotoxin

$$$$
56928149
  CDK     1019211304

103116  0  0  0  0  0  0  0  0999 V2000
   20.3392    1.3498    0.0000 O   0  0  0  0  0  0  0  0  0  0  0  0
   20.3888   -1.0396    0.0000 O   0  0  0  0  0  0  0  0  0  0  0  0
   18.0706    0.7246    0.0000 O   0  0  0  0  0  0  0  0  0  0  0  0
   17.0150    2.8122    0.0000 O   0  0  0  0  0  0  0  0  0  0  0  0
   15.3204    1.2270    0.0000 O   0  0  0  0  0  0  0  0  0  0  0  0
   22.7546   -1.4666    0.0000 O   0  0  0  0  0  0  0  0  0  0  0  0
   13.3013    1.9743    0.0000 O   0  0  0  0  0  0  0  0  0  0  0  0
   19.8057    2.7591    0.0000 O   0  0  0  0  0  0  0  0  0  0  0  0
   13.1818   -0.0316    0.0000 O   0  0  0  0  0  0  0  0  0  0  0  0
   23.4715   -2.4116    0.0000 O   0  0  0  0  0  0  0  0  0  0  0  0
   11.9756    2.0333    0.0000 O   0  0  0  0  0  0  0  0  0  0  0  0
   11.2007   -0.3049    0.0000 O   0  0  0  0  0  0  0  0  0  0  0  0
   22.6718   -3.6797    0.0000 O   0  0  0  0  0  0  0  0  0  0  0  0
    9.5802   -1.2677    0.0000 O   0  0  0  0  0  0  0  0  0  0  0  0
    4.7308   -0.5329    0.0000 O   0  0  0  0  0  0  0  0  0  0  0  0
    6.3582   -2.1086    0.0000 O   0  0  0  0  0  0  0  0  0  0  0  0
    7.5582   -0.2512    0.0000 O   0  0  0  0  0  0  0  0  0  0  0  0
    3.4534   -2.4926    0.0000 O   0  0  0  0  0  0  0  0  0  0  0  0
    1.9510   -0.2807    0.0000 O   0  0  0  0  0  0  0  0  0  0  0  0
   19.4471    1.4426    0.0000 C   0  0  2  0  0  0  0  0  0  0  0  0
   20.1612   -0.1900    0.0000 C   0  0  2  0  0  0  0  0  0  0  0  0
   18.9311    0.7533    0.0000 C   0  0  1  0  0  0  0  0  0  0  0  0
   20.6986    0.5281    0.0000 C   0  0  1  0  0  0  0  0  0  0  0  0
   19.2714   -0.0766    0.0000 C   0  0  0  0  0  0  0  0  0  0  0  0
   19.2322    2.2763    0.0000 C   0  0  2  0  0  0  0  0  0  0  0  0
   17.5099    1.3780    0.0000 C   0  0  2  0  0  0  0  0  0  0  0  0
   17.6801    2.2393    0.0000 C   0  0  1  0  0  0  0  0  0  0  0  0
   21.1940   -1.3937    0.0000 C   0  0  1  0  0  0  0  0  0  0  0  0
   18.4473    2.6302    0.0000 C   0  0  0  0  0  0  0  0  0  0  0  0
   21.5780    0.5490    0.0000 C   0  0  0  0  0  0  0  0  0  0  0  0
   21.9740   -0.9868    0.0000 C   0  0  2  0  0  0  0  0  0  0  0  0
   16.0250    1.6894    0.0000 C   0  0  2  0  0  0  0  0  0  0  0  0
   16.6767    1.1013    0.0000 C   0  0  0  0  0  0  0  0  0  0  0  0
   16.1885    2.5163    0.0000 C   0  0  2  0  0  0  0  0  0  0  0  0
   22.1445   -0.1239    0.0000 C   0  0  0  0  0  0  0  0  0  0  0  0
   19.8964    2.0427    0.0000 C   0  0  0  0  0  0  0  0  0  0  0  0
   19.7119   -0.7901    0.0000 C   0  0  0  0  0  0  0  0  0  0  0  0
   14.4968    1.4062    0.0000 C   0  0  2  0  0  0  0  0  0  0  0  0
   21.1407   -2.3084    0.0000 C   0  0  0  0  0  0  0  0  0  0  0  0
   14.0645    2.0384    0.0000 C   0  0  1  0  0  0  0  0  0  0  0  0
   15.7127    3.2120    0.0000 C   0  0  0  0  0  0  0  0  0  0  0  0
   12.9807    1.2788    0.0000 C   0  0  2  0  0  0  0  0  0  0  0  0
   13.3957    0.6718    0.0000 C   0  0  1  0  0  0  0  0  0  0  0  0
   14.8829    3.3597    0.0000 C   0  0  2  0  0  0  0  0  0  0  0  0
   14.1601    0.7183    0.0000 C   0  0  0  0  0  0  0  0  0  0  0  0
   14.1964    2.8709    0.0000 C   0  0  0  0  0  0  0  0  0  0  0  0
   21.9100   -2.8060    0.0000 C   0  0  0  0  0  0  0  0  0  0  0  0
   20.5293   -1.7403    0.0000 C   0  0  0  0  0  0  0  0  0  0  0  0
   22.7224   -2.3823    0.0000 C   0  0  1  0  0  0  0  0  0  0  0  0
   12.2475    1.3347    0.0000 C   0  0  1  0  0  0  0  0  0  0  0  0
   11.7453    0.7978    0.0000 C   0  0  0  0  0  0  0  0  0  0  0  0
   12.5575    1.8976    0.0000 C   0  0  0  0  0  0  0  0  0  0  0  0
   12.4992   -0.3049    0.0000 C   0  0  2  0  0  0  0  0  0  0  0  0
   11.8500    0.0699    0.0000 C   0  0  2  0  0  0  0  0  0  0  0  0
   14.7184    4.0911    0.0000 C   0  0  0  0  0  0  0  0  0  0  0  0
   23.0716   -3.0457    0.0000 C   0  0  0  0  0  0  0  0  0  0  0  0
   12.6051   -1.1093    0.0000 C   0  0  0  0  0  0  0  0  0  0  0  0
   10.4766   -0.1108    0.0000 C   0  0  2  0  0  0  0  0  0  0  0  0
   10.2826   -0.8350    0.0000 C   0  0  1  0  0  0  0  0  0  0  0  0
   11.9558   -1.4842    0.0000 C   0  0  0  0  0  0  0  0  0  0  0  0
    5.5201   -0.9174    0.0000 C   0  0  1  0  0  0  0  0  0  0  0  0
    5.5922   -1.7571    0.0000 C   0  0  2  0  0  0  0  0  0  0  0  0
   10.6574   -1.4842    0.0000 C   0  0  0  0  0  0  0  0  0  0  0  0
    6.9726   -0.8096    0.0000 C   0  0  1  0  0  0  0  0  0  0  0  0
    6.2149   -0.4404    0.0000 C   0  0  0  0  0  0  0  0  0  0  0  0
    4.8800   -2.2705    0.0000 C   0  0  0  0  0  0  0  0  0  0  0  0
   11.3066   -1.1093    0.0000 C   0  0  0  0  0  0  0  0  0  0  0  0
    7.0418   -1.6157    0.0000 C   0  0  1  0  0  0  0  0  0  0  0  0
    4.0822   -1.9043    0.0000 C   0  0  2  0  0  0  0  0  0  0  0  0
    4.0070   -1.0296    0.0000 C   0  0  2  0  0  0  0  0  0  0  0  0
   10.0847    0.6151    0.0000 C   0  0  0  0  0  0  0  0  0  0  0  0
    8.7794   -1.0693    0.0000 C   0  0  2  0  0  0  0  0  0  0  0  0
    8.3602   -0.3588    0.0000 C   0  0  1  0  0  0  0  0  0  0  0  0
    8.5737    0.4380    0.0000 C   0  0  0  0  0  0  0  0  0  0  0  0
    3.2872   -0.5572    0.0000 C   0  0  0  0  0  0  0  0  0  0  0  0
    9.2920    0.8437    0.0000 C   0  0  0  0  0  0  0  0  0  0  0  0
    7.7141   -2.0660    0.0000 C   0  0  0  0  0  0  0  0  0  0  0  0
    8.4859   -1.8233    0.0000 C   0  0  0  0  0  0  0  0  0  0  0  0
    2.4683   -0.8233    0.0000 C   0  0  2  0  0  0  0  0  0  0  0  0
    2.1635   -1.6285    0.0000 C   0  0  0  0  0  0  0  0  0  0  0  0
    2.6011   -2.3701    0.0000 C   0  0  0  0  0  0  0  0  0  0  0  0
   18.5850    0.2182    0.0000 H   0  0  0  0  0  0  0  0  0  0  0  0
   21.0410    1.0654    0.0000 H   0  0  0  0  0  0  0  0  0  0  0  0
   17.3396    0.7640    0.0000 H   0  0  0  0  0  0  0  0  0  0  0  0
   17.7564    2.8719    0.0000 H   0  0  0  0  0  0  0  0  0  0  0  0
   22.5578   -0.7315    0.0000 H   0  0  0  0  0  0  0  0  0  0  0  0
   15.9762    1.0542    0.0000 H   0  0  0  0  0  0  0  0  0  0  0  0
   16.3850    3.1224    0.0000 H   0  0  0  0  0  0  0  0  0  0  0  0
   14.7744    0.8326    0.0000 H   0  0  0  0  0  0  0  0  0  0  0  0
   13.6308    2.5052    0.0000 H   0  0  0  0  0  0  0  0  0  0  0  0
   13.7905    0.1717    0.0000 H   0  0  0  0  0  0  0  0  0  0  0  0
   13.0491   -0.6268    0.0000 H   0  0  0  0  0  0  0  0  0  0  0  0
   11.2768    0.3484    0.0000 H   0  0  0  0  0  0  0  0  0  0  0  0
   10.8717    0.3891    0.0000 H   0  0  0  0  0  0  0  0  0  0  0  0
   10.1265   -1.4527    0.0000 H   0  0  0  0  0  0  0  0  0  0  0  0
    5.4729   -0.2819    0.0000 H   0  0  0  0  0  0  0  0  0  0  0  0
    5.6540   -2.3913    0.0000 H   0  0  0  0  0  0  0  0  0  0  0  0
    6.8748   -0.1799    0.0000 H   0  0  0  0  0  0  0  0  0  0  0  0
    4.1843   -2.5333    0.0000 H   0  0  0  0  0  0  0  0  0  0  0  0
    7.0528   -2.2529    0.0000 H   0  0  0  0  0  0  0  0  0  0  0  0
    4.0004   -0.3925    0.0000 H   0  0  0  0  0  0  0  0  0  0  0  0
    9.0728   -1.6350    0.0000 H   0  0  0  0  0  0  0  0  0  0  0  0
    8.0068    0.1714    0.0000 H   0  0  0  0  0  0  0  0  0  0  0  0
  1 20  1  0  0  0  0 
  1 23  1  0  0  0  0 
  2 21  1  0  0  0  0 
  2 28  1  0  0  0  0 
  3 22  1  0  0  0  0 
  3 26  1  0  0  0  0 
  4 27  1  0  0  0  0 
  4 34  1  0  0  0  0 
  5 32  1  0  0  0  0 
  5 38  1  0  0  0  0 
  6 31  1  0  0  0  0 
  6 49  1  0  0  0  0 
  7 40  1  0  0  0  0 
  7 42  1  0  0  0  0 
 25  8  1  6  0  0  0 
  9 43  1  0  0  0  0 
  9 53  1  0  0  0  0 
 49 10  1  1  0  0  0 
 50 11  1  1  0  0  0 
 12 54  1  0  0  0  0 
 12 58  1  0  0  0  0 
 13 56  1  0  0  0  0 
 14 59  1  0  0  0  0 
 14 72  1  0  0  0  0 
 15 61  1  0  0  0  0 
 15 70  1  0  0  0  0 
 16 62  1  0  0  0  0 
 16 68  1  0  0  0  0 
 17 64  1  0  0  0  0 
 17 73  1  0  0  0  0 
 18 69  1  0  0  0  0 
 18 81  1  0  0  0  0 
 79 19  1  6  0  0  0 
 20 22  1  0  0  0  0 
 20 25  1  0  0  0  0 
 20 36  1  1  0  0  0 
 21 23  1  0  0  0  0 
 21 24  1  0  0  0  0 
 21 37  1  6  0  0  0 
 22 24  1  0  0  0  0 
 22 82  1  6  0  0  0 
 23 30  1  0  0  0  0 
 23 83  1  1  0  0  0 
 25 29  1  0  0  0  0 
 26 27  1  0  0  0  0 
 26 33  1  0  0  0  0 
 26 84  1  6  0  0  0 
 27 29  1  0  0  0  0 
 27 85  1  1  0  0  0 
 28 31  1  0  0  0  0 
 28 39  1  0  0  0  0 
 28 48  1  6  0  0  0 
 30 35  1  0  0  0  0 
 31 35  1  0  0  0  0 
 31 86  1  1  0  0  0 
 32 33  1  0  0  0  0 
 32 34  1  0  0  0  0 
 32 87  1  6  0  0  0 
 34 41  1  0  0  0  0 
 34 88  1  1  0  0  0 
 38 40  1  0  0  0  0 
 38 45  1  0  0  0  0 
 38 89  1  6  0  0  0 
 39 47  1  0  0  0  0 
 40 46  1  0  0  0  0 
 40 90  1  1  0  0  0 
 41 44  1  0  0  0  0 
 42 43  1  0  0  0  0 
 42 50  1  0  0  0  0 
 42 52  1  1  0  0  0 
 43 45  1  0  0  0  0 
 43 91  1  6  0  0  0 
 44 46  1  0  0  0  0 
 44 55  1  6  0  0  0 
 47 49  1  0  0  0  0 
 49 56  1  0  0  0  0 
 50 51  1  0  0  0  0 
 51 54  1  0  0  0  0 
 53 54  1  0  0  0  0 
 53 57  1  0  0  0  0 
 53 92  1  6  0  0  0 
 54 93  1  1  0  0  0 
 57 60  1  0  0  0  0 
 58 59  1  0  0  0  0 
 58 71  1  0  0  0  0 
 58 94  1  1  0  0  0 
 59 63  1  0  0  0  0 
 59 95  1  6  0  0  0 
 60 67  2  0  0  0  0 
 61 62  1  0  0  0  0 
 61 65  1  0  0  0  0 
 61 96  1  1  0  0  0 
 62 66  1  0  0  0  0 
 62 97  1  6  0  0  0 
 63 67  1  0  0  0  0 
 64 65  1  0  0  0  0 
 64 68  1  0  0  0  0 
 64 98  1  1  0  0  0 
 66 69  1  0  0  0  0 
 68 77  1  0  0  0  0 
 68100  1  6  0  0  0 
 69 70  1  0  0  0  0 
 69 99  1  6  0  0  0 
 70 75  1  0  0  0  0 
 70101  1  1  0  0  0 
 71 76  2  0  0  0  0 
 72 73  1  0  0  0  0 
 72 78  1  0  0  0  0 
 72102  1  6  0  0  0 
 73 74  1  0  0  0  0 
 73103  1  1  0  0  0 
 74 76  1  0  0  0  0 
 75 79  1  0  0  0  0 
 77 78  2  0  0  0  0 
 79 80  1  0  0  0  0 
 80 81  1  0  0  0  0 
M  END
> <ID>
CHEBI:182164

> <NAME>
Caribbean ciguatoxin 1

$$$$
131751377
  CDK     1109211115

 76 88  0  0  0  0  0  0  0  0999 V2000
    5.8273   -2.1243    0.0000 O   0  0  0  0  0  0  0  0  0  0  0  0
    3.4881   -3.2354    0.0000 O   0  0  0  0  0  0  0  0  0  0  0  0
    7.3702   -4.1851    0.0000 O   0  0  0  0  0  0  0  0  0  0  0  0
    8.9038   -2.1433    0.0000 O   0  0  0  0  0  0  0  0  0  0  0  0
   11.2346   -2.5672    0.0000 O   0  0  0  0  0  0  0  0  0  0  0  0
    2.4179   -1.7761    0.0000 O   0  0  0  0  0  0  0  0  0  0  0  0
   10.9808   -0.3706    0.0000 O   0  0  0  0  0  0  0  0  0  0  0  0
    4.3356   -4.6607    0.0000 O   0  0  0  0  0  0  0  0  0  0  0  0
   12.6826   -2.3778    0.0000 O   0  0  0  0  0  0  0  0  0  0  0  0
   13.2188    0.0559    0.0000 O   0  0  0  0  0  0  0  0  0  0  0  0
   14.0275    2.1858    0.0000 O   0  0  0  0  0  0  0  0  0  0  0  0
   17.1102    3.3683    0.0000 O   0  0  0  0  0  0  0  0  0  0  0  0
   16.0996    1.4494    0.0000 O   0  0  0  0  0  0  0  0  0  0  0  0
   18.8372    1.9706    0.0000 O   0  0  0  0  0  0  0  0  0  0  0  0
   19.9145    3.9963    0.0000 O   0  0  0  0  0  0  0  0  0  0  0  0
   18.3875    4.4659    0.0000 O   0  0  0  0  0  0  0  0  0  0  0  0
    4.9001   -2.3198    0.0000 C   0  0  0  0  0  0  0  0  0  0  0  0
    4.4726   -3.1654    0.0000 C   0  0  0  0  0  0  0  0  0  0  0  0
    6.5399   -3.6912    0.0000 C   0  0  0  0  0  0  0  0  0  0  0  0
    6.5598   -2.7254    0.0000 C   0  0  0  0  0  0  0  0  0  0  0  0
    4.3727   -1.4856    0.0000 C   0  0  0  0  0  0  0  0  0  0  0  0
    3.3869   -1.5328    0.0000 C   0  0  0  0  0  0  0  0  0  0  0  0
    5.7831   -4.2615    0.0000 C   0  0  0  0  0  0  0  0  0  0  0  0
    2.9416   -2.4136    0.0000 C   0  0  0  0  0  0  0  0  0  0  0  0
    4.8649   -4.0280    0.0000 C   0  0  0  0  0  0  0  0  0  0  0  0
    8.2285   -2.7791    0.0000 C   0  0  0  0  0  0  0  0  0  0  0  0
    8.2093   -3.7063    0.0000 C   0  0  0  0  0  0  0  0  0  0  0  0
    7.4098   -2.2662    0.0000 C   0  0  0  0  0  0  0  0  0  0  0  0
    9.8305   -2.1801    0.0000 C   0  0  0  0  0  0  0  0  0  0  0  0
   10.4198   -2.7826    0.0000 C   0  0  0  0  0  0  0  0  0  0  0  0
   11.4492   -1.7523    0.0000 C   0  0  0  0  0  0  0  0  0  0  0  0
    8.8578   -4.3694    0.0000 C   0  0  0  0  0  0  0  0  0  0  0  0
   10.8835   -1.1738    0.0000 C   0  0  0  0  0  0  0  0  0  0  0  0
    2.4971   -3.1085    0.0000 C   0  0  0  0  0  0  0  0  0  0  0  0
   10.0639   -1.3702    0.0000 C   0  0  0  0  0  0  0  0  0  0  0  0
    9.7853   -4.3709    0.0000 C   0  0  0  0  0  0  0  0  0  0  0  0
   10.4359   -3.7100    0.0000 C   0  0  0  0  0  0  0  0  0  0  0  0
    4.7534   -0.7537    0.0000 C   0  0  0  0  0  0  0  0  0  0  0  0
    2.9381   -0.8405    0.0000 C   0  0  0  0  0  0  0  0  0  0  0  0
   12.2544   -1.6728    0.0000 C   0  0  0  0  0  0  0  0  0  0  0  0
    5.9457   -5.0703    0.0000 C   0  0  0  0  0  0  0  0  0  0  0  0
    1.6988   -2.9006    0.0000 C   0  0  0  0  0  0  0  0  0  0  0  0
    1.6499   -2.0771    0.0000 C   0  0  0  0  0  0  0  0  0  0  0  0
   12.6961   -0.9949    0.0000 C   0  0  0  0  0  0  0  0  0  0  0  0
   12.0260   -2.3420    0.0000 C   0  0  0  0  0  0  0  0  0  0  0  0
   12.4436   -0.2262    0.0000 C   0  0  0  0  0  0  0  0  0  0  0  0
   11.6684    0.0559    0.0000 C   0  0  0  0  0  0  0  0  0  0  0  0
   10.1034   -5.1321    0.0000 C   0  0  0  0  0  0  0  0  0  0  0  0
   11.2559    0.7703    0.0000 C   0  0  0  0  0  0  0  0  0  0  0  0
   13.6312    0.7703    0.0000 C   0  0  0  0  0  0  0  0  0  0  0  0
   13.4880    1.5827    0.0000 C   0  0  0  0  0  0  0  0  0  0  0  0
   11.3992    1.5827    0.0000 C   0  0  0  0  0  0  0  0  0  0  0  0
   18.0327    2.2775    0.0000 C   0  0  0  0  0  0  0  0  0  0  0  0
   17.8891    3.0916    0.0000 C   0  0  0  0  0  0  0  0  0  0  0  0
   12.8561    2.1130    0.0000 C   0  0  0  0  0  0  0  0  0  0  0  0
   16.6231    2.0458    0.0000 C   0  0  0  0  0  0  0  0  0  0  0  0
   17.3954    1.7511    0.0000 C   0  0  0  0  0  0  0  0  0  0  0  0
   14.3444    0.3882    0.0000 C   0  0  0  0  0  0  0  0  0  0  0  0
   16.4853    2.8273    0.0000 C   0  0  0  0  0  0  0  0  0  0  0  0
   18.5401    3.6551    0.0000 C   0  0  0  0  0  0  0  0  0  0  0  0
   15.3068    1.4847    0.0000 C   0  0  0  0  0  0  0  0  0  0  0  0
   14.8354    2.1422    0.0000 C   0  0  0  0  0  0  0  0  0  0  0  0
   12.0312    2.1130    0.0000 C   0  0  0  0  0  0  0  0  0  0  0  0
   19.3514    3.3669    0.0000 C   0  0  0  0  0  0  0  0  0  0  0  0
   19.5009    2.5190    0.0000 C   0  0  0  0  0  0  0  0  0  0  0  0
   15.0888    0.7055    0.0000 C   0  0  0  0  0  0  0  0  0  0  0  0
   15.7894    3.2086    0.0000 C   0  0  0  0  0  0  0  0  0  0  0  0
   15.0565    2.9044    0.0000 C   0  0  0  0  0  0  0  0  0  0  0  0
   20.2453    2.1201    0.0000 C   0  0  0  0  0  0  0  0  0  0  0  0
   20.7577    3.9508    0.0000 C   0  0  0  0  0  0  0  0  0  0  0  0
   21.0221    2.4513    0.0000 C   0  0  0  0  0  0  0  0  0  0  0  0
   21.2497    3.2645    0.0000 C   0  0  0  0  0  0  0  0  0  0  0  0
   21.1542    4.6743    0.0000 C   0  0  0  0  0  0  0  0  0  0  0  0
   21.9790    4.6926    0.0000 C   0  0  0  0  0  0  0  0  0  0  0  0
   22.4072    3.9875    0.0000 C   0  0  0  0  0  0  0  0  0  0  0  0
   23.2319    4.0059    0.0000 C   0  0  0  0  0  0  0  0  0  0  0  0
  1 17  1  0  0  0  0 
  1 20  1  0  0  0  0 
  2 18  1  0  0  0  0 
  2 24  1  0  0  0  0 
  3 19  1  0  0  0  0 
  3 27  1  0  0  0  0 
  4 26  1  0  0  0  0 
  4 29  1  0  0  0  0 
  5 30  1  0  0  0  0 
  5 31  1  0  0  0  0 
  6 24  1  0  0  0  0 
  6 43  1  0  0  0  0 
  7 33  1  0  0  0  0 
  7 47  1  0  0  0  0 
  8 25  1  0  0  0  0 
  9 40  1  0  0  0  0 
 10 46  1  0  0  0  0 
 10 50  1  0  0  0  0 
 11 51  1  0  0  0  0 
 11 62  1  0  0  0  0 
 12 54  1  0  0  0  0 
 12 59  1  0  0  0  0 
 13 56  1  0  0  0  0 
 13 61  1  0  0  0  0 
 14 53  1  0  0  0  0 
 14 65  1  0  0  0  0 
 15 64  1  0  0  0  0 
 15 70  1  0  0  0  0 
 16 60  1  0  0  0  0 
 17 18  1  0  0  0  0 
 17 21  1  0  0  0  0 
 18 25  1  0  0  0  0 
 19 20  1  0  0  0  0 
 19 23  1  0  0  0  0 
 20 28  1  0  0  0  0 
 21 22  1  0  0  0  0 
 21 38  1  0  0  0  0 
 22 24  1  0  0  0  0 
 22 39  1  0  0  0  0 
 23 25  1  0  0  0  0 
 23 41  1  0  0  0  0 
 24 34  1  0  0  0  0 
 26 27  1  0  0  0  0 
 26 28  1  0  0  0  0 
 27 32  1  0  0  0  0 
 29 30  1  0  0  0  0 
 29 35  1  0  0  0  0 
 30 37  1  0  0  0  0 
 31 33  1  0  0  0  0 
 31 40  1  0  0  0  0 
 31 45  1  0  0  0  0 
 32 36  1  0  0  0  0 
 33 35  1  0  0  0  0 
 34 42  1  0  0  0  0 
 36 37  1  0  0  0  0 
 36 48  1  0  0  0  0 
 40 44  1  0  0  0  0 
 42 43  1  0  0  0  0 
 44 46  1  0  0  0  0 
 46 47  1  0  0  0  0 
 47 49  1  0  0  0  0 
 49 52  1  0  0  0  0 
 50 51  1  0  0  0  0 
 50 58  1  0  0  0  0 
 51 55  1  0  0  0  0 
 52 63  2  0  0  0  0 
 53 54  1  0  0  0  0 
 53 57  1  0  0  0  0 
 54 60  1  0  0  0  0 
 55 63  1  0  0  0  0 
 56 57  1  0  0  0  0 
 56 59  1  0  0  0  0 
 58 66  2  0  0  0  0 
 59 67  1  0  0  0  0 
 60 64  1  0  0  0  0 
 61 62  1  0  0  0  0 
 61 66  1  0  0  0  0 
 62 68  1  0  0  0  0 
 64 65  1  0  0  0  0 
 65 69  1  0  0  0  0 
 67 68  2  0  0  0  0 
 69 71  1  0  0  0  0 
 70 72  1  0  0  0  0 
 70 73  1  0  0  0  0 
 71 72  2  0  0  0  0 
 73 74  2  0  0  0  0 
 74 75  1  0  0  0  0 
 75 76  2  0  0  0  0 
M  END
> <ID>
CHEBI:183595

> <NAME>
Pacific Ciguatoxin 4A

$$$$
6440709
  CDK     0316221018

 64 74  0  0  0  0  0  0  0  0999 V2000
   15.1926    7.1742    0.0000 Cl  0  0  0  0  0  0  0  0  0  0  0  0
    7.4423    0.4346    0.0000 O   0  0  0  0  0  0  0  0  0  0  0  0
    6.4555    2.4151    0.0000 O   0  0  0  0  0  0  0  0  0  0  0  0
    5.2403   -0.1764    0.0000 O   0  0  0  0  0  0  0  0  0  0  0  0
    5.5214   -2.4452    0.0000 O   0  0  0  0  0  0  0  0  0  0  0  0
    8.5768    2.9062    0.0000 O   0  0  0  0  0  0  0  0  0  0  0  0
    3.3464   -3.0392    0.0000 O   0  0  0  0  0  0  0  0  0  0  0  0
    4.3764   -5.1064    0.0000 O   0  0  0  0  0  0  0  0  0  0  0  0
   11.0486    4.0407    0.0000 O   0  0  0  0  0  0  0  0  0  0  0  0
    9.0679    5.0276    0.0000 O   0  0  0  0  0  0  0  0  0  0  0  0
   11.7805    6.2264    0.0000 O   0  0  0  0  0  0  0  0  0  0  0  0
    2.0953   -5.8703    0.0000 O   0  0  0  0  0  0  0  0  0  0  0  0
   12.7536    3.8531    0.0000 O   0  0  0  0  0  0  0  0  0  0  0  0
    1.5809   -7.2744    0.0000 O   0  0  0  0  0  0  0  0  0  0  0  0
   14.2351    5.9163    0.0000 O   0  0  0  0  0  0  0  0  0  0  0  0
    7.3173    1.2830    0.0000 C   0  0  0  0  0  0  0  0  0  0  0  0
    6.7660   -0.0928    0.0000 C   0  0  0  0  0  0  0  0  0  0  0  0
    6.5567    1.5981    0.0000 C   0  0  0  0  0  0  0  0  0  0  0  0
    5.9736    0.2354    0.0000 C   0  0  0  0  0  0  0  0  0  0  0  0
    5.8683    1.0865    0.0000 C   0  0  0  0  0  0  0  0  0  0  0  0
    7.9666    1.7892    0.0000 C   0  0  0  0  0  0  0  0  0  0  0  0
    7.8466    2.6037    0.0000 C   0  0  0  0  0  0  0  0  0  0  0  0
    7.1164    2.9062    0.0000 C   0  0  0  0  0  0  0  0  0  0  0  0
    5.1027   -1.0062    0.0000 C   0  0  0  0  0  0  0  0  0  0  0  0
    6.9935   -0.9026    0.0000 C   0  0  0  0  0  0  0  0  0  0  0  0
    5.6640   -1.6326    0.0000 C   0  0  0  0  0  0  0  0  0  0  0  0
    6.5039   -1.5866    0.0000 C   0  0  0  0  0  0  0  0  0  0  0  0
    4.2794   -1.0591    0.0000 C   0  0  0  0  0  0  0  0  0  0  0  0
    4.7984   -2.8423    0.0000 C   0  0  0  0  0  0  0  0  0  0  0  0
    4.0362   -2.5266    0.0000 C   0  0  0  0  0  0  0  0  0  0  0  0
    4.2459   -4.2209    0.0000 C   0  0  0  0  0  0  0  0  0  0  0  0
    3.8057   -1.7345    0.0000 C   0  0  0  0  0  0  0  0  0  0  0  0
    8.0476    0.9805    0.0000 C   0  0  0  0  0  0  0  0  0  0  0  0
    4.9236   -3.6925    0.0000 C   0  0  0  0  0  0  0  0  0  0  0  0
    7.4962   -0.3953    0.0000 C   0  0  0  0  0  0  0  0  0  0  0  0
    3.4520   -3.8920    0.0000 C   0  0  0  0  0  0  0  0  0  0  0  0
    8.8793    3.6365    0.0000 C   0  0  0  0  0  0  0  0  0  0  0  0
    6.8139    3.6365    0.0000 C   0  0  0  0  0  0  0  0  0  0  0  0
   10.2001    4.1658    0.0000 C   0  0  0  0  0  0  0  0  0  0  0  0
    9.8850    4.9264    0.0000 C   0  0  0  0  0  0  0  0  0  0  0  0
    9.6939    3.5164    0.0000 C   0  0  0  0  0  0  0  0  0  0  0  0
   11.5759    4.7171    0.0000 C   0  0  0  0  0  0  0  0  0  0  0  0
    8.5768    4.3667    0.0000 C   0  0  0  0  0  0  0  0  0  0  0  0
    6.3861    3.2087    0.0000 C   0  0  0  0  0  0  0  0  0  0  0  0
   11.2477    5.5094    0.0000 C   0  0  0  0  0  0  0  0  0  0  0  0
    2.7336   -4.4259    0.0000 C   0  0  0  0  0  0  0  0  0  0  0  0
   10.3966    5.6148    0.0000 C   0  0  0  0  0  0  0  0  0  0  0  0
    3.8925   -0.3699    0.0000 C   0  0  0  0  0  0  0  0  0  0  0  0
    2.8436   -5.3142    0.0000 C   0  0  0  0  0  0  0  0  0  0  0  0
    3.6706   -5.6568    0.0000 C   0  0  0  0  0  0  0  0  0  0  0  0
   12.4596    4.5868    0.0000 C   0  0  0  0  0  0  0  0  0  0  0  0
    4.9762   -4.5233    0.0000 C   0  0  0  0  0  0  0  0  0  0  0  0
    7.1164    4.3667    0.0000 C   0  0  0  0  0  0  0  0  0  0  0  0
    7.8466    4.6692    0.0000 C   0  0  0  0  0  0  0  0  0  0  0  0
   13.0088    5.2913    0.0000 C   0  0  0  0  0  0  0  0  0  0  0  0
   12.6671    6.1166    0.0000 C   0  0  0  0  0  0  0  0  0  0  0  0
   11.8784    3.9868    0.0000 C   0  0  0  0  0  0  0  0  0  0  0  0
    3.8065   -6.5791    0.0000 C   0  0  0  0  0  0  0  0  0  0  0  0
   13.1458    6.7456    0.0000 C   0  0  0  0  0  0  0  0  0  0  0  0
    3.0712   -7.1524    0.0000 C   0  0  0  0  0  0  0  0  0  0  0  0
    2.2098   -6.7956    0.0000 C   0  0  0  0  0  0  0  0  0  0  0  0
    4.5402   -6.8732    0.0000 C   0  0  0  0  0  0  0  0  0  0  0  0
   13.9298    6.6454    0.0000 C   0  0  0  0  0  0  0  0  0  0  0  0
   14.4086    7.2744    0.0000 C   0  0  0  0  0  0  0  0  0  0  0  0
  1 64  1  0  0  0  0 
  2 16  1  0  0  0  0 
  2 17  1  0  0  0  0 
  3 18  1  0  0  0  0 
  3 23  1  0  0  0  0 
  4 19  1  0  0  0  0 
  4 24  1  0  0  0  0 
  5 26  1  0  0  0  0 
  5 29  1  0  0  0  0 
  6 22  1  0  0  0  0 
  6 37  1  0  0  0  0 
  7 30  1  0  0  0  0 
  7 36  1  0  0  0  0 
  8 31  1  0  0  0  0 
  8 50  1  0  0  0  0 
  9 39  1  0  0  0  0 
  9 42  1  0  0  0  0 
 10 40  1  0  0  0  0 
 10 43  1  0  0  0  0 
 11 45  1  0  0  0  0 
 11 56  1  0  0  0  0 
 12 49  1  0  0  0  0 
 12 61  1  0  0  0  0 
 13 51  1  0  0  0  0 
 14 61  2  0  0  0  0 
 15 63  2  0  0  0  0 
 16 18  1  0  0  0  0 
 16 21  1  0  0  0  0 
 16 33  1  0  0  0  0 
 17 19  1  0  0  0  0 
 17 25  1  0  0  0  0 
 17 35  1  0  0  0  0 
 18 20  1  0  0  0  0 
 19 20  1  0  0  0  0 
 21 22  1  0  0  0  0 
 22 23  1  0  0  0  0 
 23 38  1  0  0  0  0 
 23 44  1  0  0  0  0 
 24 26  1  0  0  0  0 
 24 28  1  0  0  0  0 
 25 27  1  0  0  0  0 
 26 27  1  0  0  0  0 
 28 32  1  0  0  0  0 
 28 48  1  0  0  0  0 
 29 30  1  0  0  0  0 
 29 34  1  0  0  0  0 
 30 32  1  0  0  0  0 
 31 34  1  0  0  0  0 
 31 36  1  0  0  0  0 
 31 52  1  0  0  0  0 
 36 46  1  0  0  0  0 
 37 41  1  0  0  0  0 
 37 43  1  0  0  0  0 
 38 53  1  0  0  0  0 
 39 40  1  0  0  0  0 
 39 41  1  0  0  0  0 
 40 47  1  0  0  0  0 
 42 45  1  0  0  0  0 
 42 51  1  0  0  0  0 
 42 57  1  0  0  0  0 
 43 54  1  0  0  0  0 
 45 47  1  0  0  0  0 
 46 49  1  0  0  0  0 
 49 50  1  0  0  0  0 
 50 58  1  0  0  0  0 
 51 55  1  0  0  0  0 
 53 54  2  0  0  0  0 
 55 56  1  0  0  0  0 
 56 59  1  0  0  0  0 
 58 60  2  0  0  0  0 
 58 62  1  0  0  0  0 
 59 63  1  0  0  0  0 
 60 61  1  0  0  0  0 
 63 64  1  0  0  0  0 
M  END
> <ID>
CHEBI:190248

> <NAME>
Brevetoxin B, 43-chloro-41-deformyl-41,43-dihydro-41-oxo-

$$$$
131752628
  CDK     0512222200

 80 92  0  0  0  0  0  0  0  0999 V2000
    6.8946   -2.1244    0.0000 O   0  0  0  0  0  0  0  0  0  0  0  0
    4.5554   -3.2354    0.0000 O   0  0  0  0  0  0  0  0  0  0  0  0
    8.4375   -4.1851    0.0000 O   0  0  0  0  0  0  0  0  0  0  0  0
    9.9711   -2.1433    0.0000 O   0  0  0  0  0  0  0  0  0  0  0  0
    3.4853   -1.7761    0.0000 O   0  0  0  0  0  0  0  0  0  0  0  0
   12.3020   -2.5673    0.0000 O   0  0  0  0  0  0  0  0  0  0  0  0
    5.4029   -4.6608    0.0000 O   0  0  0  0  0  0  0  0  0  0  0  0
   12.0483   -0.3706    0.0000 O   0  0  0  0  0  0  0  0  0  0  0  0
    2.1287   -3.4242    0.0000 O   0  0  0  0  0  0  0  0  0  0  0  0
   13.7501   -2.3779    0.0000 O   0  0  0  0  0  0  0  0  0  0  0  0
   14.2862    0.0559    0.0000 O   0  0  0  0  0  0  0  0  0  0  0  0
   15.0949    2.1858    0.0000 O   0  0  0  0  0  0  0  0  0  0  0  0
   18.1777    3.3683    0.0000 O   0  0  0  0  0  0  0  0  0  0  0  0
   19.9046    1.9707    0.0000 O   0  0  0  0  0  0  0  0  0  0  0  0
   17.1671    1.4494    0.0000 O   0  0  0  0  0  0  0  0  0  0  0  0
   20.9819    3.9963    0.0000 O   0  0  0  0  0  0  0  0  0  0  0  0
   19.4549    4.4659    0.0000 O   0  0  0  0  0  0  0  0  0  0  0  0
   22.7096    1.9071    0.0000 O   0  0  0  0  0  0  0  0  0  0  0  0
   23.0782    3.2641    0.0000 O   0  0  0  0  0  0  0  0  0  0  0  0
   24.7277    3.3008    0.0000 O   0  0  0  0  0  0  0  0  0  0  0  0
    5.9674   -2.3199    0.0000 C   0  0  0  0  0  0  0  0  0  0  0  0
    5.5399   -3.1655    0.0000 C   0  0  0  0  0  0  0  0  0  0  0  0
    7.6072   -3.6913    0.0000 C   0  0  0  0  0  0  0  0  0  0  0  0
    5.4401   -1.4856    0.0000 C   0  0  0  0  0  0  0  0  0  0  0  0
    7.6271   -2.7254    0.0000 C   0  0  0  0  0  0  0  0  0  0  0  0
    4.4542   -1.5328    0.0000 C   0  0  0  0  0  0  0  0  0  0  0  0
    4.0089   -2.4136    0.0000 C   0  0  0  0  0  0  0  0  0  0  0  0
    6.8505   -4.2616    0.0000 C   0  0  0  0  0  0  0  0  0  0  0  0
    5.9322   -4.0280    0.0000 C   0  0  0  0  0  0  0  0  0  0  0  0
    9.2958   -2.7791    0.0000 C   0  0  0  0  0  0  0  0  0  0  0  0
    9.2767   -3.7064    0.0000 C   0  0  0  0  0  0  0  0  0  0  0  0
    8.4771   -2.2662    0.0000 C   0  0  0  0  0  0  0  0  0  0  0  0
   10.8979   -2.1801    0.0000 C   0  0  0  0  0  0  0  0  0  0  0  0
   11.4871   -2.7827    0.0000 C   0  0  0  0  0  0  0  0  0  0  0  0
   12.5166   -1.7523    0.0000 C   0  0  0  0  0  0  0  0  0  0  0  0
    3.5645   -3.1085    0.0000 C   0  0  0  0  0  0  0  0  0  0  0  0
    9.9252   -4.3695    0.0000 C   0  0  0  0  0  0  0  0  0  0  0  0
   11.9509   -1.1738    0.0000 C   0  0  0  0  0  0  0  0  0  0  0  0
   10.8527   -4.3710    0.0000 C   0  0  0  0  0  0  0  0  0  0  0  0
   11.1313   -1.3703    0.0000 C   0  0  0  0  0  0  0  0  0  0  0  0
   11.5033   -3.7100    0.0000 C   0  0  0  0  0  0  0  0  0  0  0  0
    5.8207   -0.7537    0.0000 C   0  0  0  0  0  0  0  0  0  0  0  0
    4.0054   -0.8406    0.0000 C   0  0  0  0  0  0  0  0  0  0  0  0
    2.7662   -2.9006    0.0000 C   0  0  0  0  0  0  0  0  0  0  0  0
    7.0131   -5.0704    0.0000 C   0  0  0  0  0  0  0  0  0  0  0  0
   13.3219   -1.6729    0.0000 C   0  0  0  0  0  0  0  0  0  0  0  0
    2.7172   -2.0772    0.0000 C   0  0  0  0  0  0  0  0  0  0  0  0
   13.7635   -0.9949    0.0000 C   0  0  0  0  0  0  0  0  0  0  0  0
   13.0934   -2.3421    0.0000 C   0  0  0  0  0  0  0  0  0  0  0  0
   12.7358    0.0559    0.0000 C   0  0  0  0  0  0  0  0  0  0  0  0
   13.5110   -0.2262    0.0000 C   0  0  0  0  0  0  0  0  0  0  0  0
   11.1708   -5.1322    0.0000 C   0  0  0  0  0  0  0  0  0  0  0  0
   12.3233    0.7703    0.0000 C   0  0  0  0  0  0  0  0  0  0  0  0
   14.6987    0.7703    0.0000 C   0  0  0  0  0  0  0  0  0  0  0  0
   14.5554    1.5828    0.0000 C   0  0  0  0  0  0  0  0  0  0  0  0
   12.4666    1.5828    0.0000 C   0  0  0  0  0  0  0  0  0  0  0  0
   19.1001    2.2775    0.0000 C   0  0  0  0  0  0  0  0  0  0  0  0
   18.9567    3.0916    0.0000 C   0  0  0  0  0  0  0  0  0  0  0  0
   17.6906    2.0458    0.0000 C   0  0  0  0  0  0  0  0  0  0  0  0
   13.9235    2.1131    0.0000 C   0  0  0  0  0  0  0  0  0  0  0  0
   18.4628    1.7511    0.0000 C   0  0  0  0  0  0  0  0  0  0  0  0
   19.6075    3.6551    0.0000 C   0  0  0  0  0  0  0  0  0  0  0  0
   17.5527    2.8273    0.0000 C   0  0  0  0  0  0  0  0  0  0  0  0
   20.4189    3.3669    0.0000 C   0  0  0  0  0  0  0  0  0  0  0  0
   15.4119    0.3882    0.0000 C   0  0  0  0  0  0  0  0  0  0  0  0
   16.3743    1.4847    0.0000 C   0  0  0  0  0  0  0  0  0  0  0  0
   15.9028    2.1423    0.0000 C   0  0  0  0  0  0  0  0  0  0  0  0
   13.0985    2.1131    0.0000 C   0  0  0  0  0  0  0  0  0  0  0  0
   20.5685    2.5190    0.0000 C   0  0  0  0  0  0  0  0  0  0  0  0
   16.1562    0.7055    0.0000 C   0  0  0  0  0  0  0  0  0  0  0  0
   16.8568    3.2087    0.0000 C   0  0  0  0  0  0  0  0  0  0  0  0
   16.1239    2.9044    0.0000 C   0  0  0  0  0  0  0  0  0  0  0  0
   21.3128    2.1201    0.0000 C   0  0  0  0  0  0  0  0  0  0  0  0
   21.8252    3.9508    0.0000 C   0  0  0  0  0  0  0  0  0  0  0  0
   22.0896    2.4513    0.0000 C   0  0  0  0  0  0  0  0  0  0  0  0
   22.3173    3.2645    0.0000 C   0  0  0  0  0  0  0  0  0  0  0  0
   22.2217    4.6743    0.0000 C   0  0  0  0  0  0  0  0  0  0  0  0
   23.0465    4.6926    0.0000 C   0  0  0  0  0  0  0  0  0  0  0  0
   23.4747    3.9875    0.0000 C   0  0  0  0  0  0  0  0  0  0  0  0
   24.2995    4.0059    0.0000 C   0  0  0  0  0  0  0  0  0  0  0  0
  1 21  1  0  0  0  0 
  1 25  1  0  0  0  0 
  2 22  1  0  0  0  0 
  2 27  1  0  0  0  0 
  3 23  1  0  0  0  0 
  3 31  1  0  0  0  0 
  4 30  1  0  0  0  0 
  4 33  1  0  0  0  0 
  5 27  1  0  0  0  0 
  5 47  1  0  0  0  0 
  6 34  1  0  0  0  0 
  6 35  1  0  0  0  0 
  7 29  1  0  0  0  0 
  8 38  1  0  0  0  0 
  8 50  1  0  0  0  0 
  9 44  1  0  0  0  0 
 10 46  1  0  0  0  0 
 11 51  1  0  0  0  0 
 11 54  1  0  0  0  0 
 12 55  1  0  0  0  0 
 12 67  1  0  0  0  0 
 13 58  1  0  0  0  0 
 13 63  1  0  0  0  0 
 14 57  1  0  0  0  0 
 14 69  1  0  0  0  0 
 15 59  1  0  0  0  0 
 15 66  1  0  0  0  0 
 16 64  1  0  0  0  0 
 16 74  1  0  0  0  0 
 17 62  1  0  0  0  0 
 18 75  2  0  0  0  0 
 19 79  1  0  0  0  0 
 20 80  1  0  0  0  0 
 21 22  1  0  0  0  0 
 21 24  1  0  0  0  0 
 22 29  1  0  0  0  0 
 23 25  1  0  0  0  0 
 23 28  1  0  0  0  0 
 24 26  1  0  0  0  0 
 24 42  1  0  0  0  0 
 25 32  1  0  0  0  0 
 26 27  1  0  0  0  0 
 26 43  1  0  0  0  0 
 27 36  1  0  0  0  0 
 28 29  1  0  0  0  0 
 28 45  1  0  0  0  0 
 30 31  1  0  0  0  0 
 30 32  1  0  0  0  0 
 31 37  1  0  0  0  0 
 33 34  1  0  0  0  0 
 33 40  1  0  0  0  0 
 34 41  1  0  0  0  0 
 35 38  1  0  0  0  0 
 35 46  1  0  0  0  0 
 35 49  1  0  0  0  0 
 36 44  1  0  0  0  0 
 37 39  1  0  0  0  0 
 38 40  1  0  0  0  0 
 39 41  1  0  0  0  0 
 39 52  1  0  0  0  0 
 44 47  1  0  0  0  0 
 46 48  1  0  0  0  0 
 48 51  1  0  0  0  0 
 50 51  1  0  0  0  0 
 50 53  1  0  0  0  0 
 53 56  1  0  0  0  0 
 54 55  1  0  0  0  0 
 54 65  1  0  0  0  0 
 55 60  1  0  0  0  0 
 56 68  2  0  0  0  0 
 57 58  1  0  0  0  0 
 57 61  1  0  0  0  0 
 58 62  1  0  0  0  0 
 59 61  1  0  0  0  0 
 59 63  1  0  0  0  0 
 60 68  1  0  0  0  0 
 62 64  1  0  0  0  0 
 63 71  1  0  0  0  0 
 64 69  1  0  0  0  0 
 65 70  2  0  0  0  0 
 66 67  1  0  0  0  0 
 66 70  1  0  0  0  0 
 67 72  1  0  0  0  0 
 69 73  1  0  0  0  0 
 71 72  2  0  0  0  0 
 73 75  1  0  0  0  0 
 74 76  1  0  0  0  0 
 74 77  1  0  0  0  0 
 75 76  1  0  0  0  0 
 77 78  2  0  0  0  0 
 78 79  1  0  0  0  0 
 79 80  1  0  0  0  0 
M  END
> <ID>
CHEBI:191573

> <NAME>
7-Oxociguatoxin

$$$$
131752627
  CDK     0523222200

 80 92  0  0  0  0  0  0  0  0999 V2000
    6.8946   -2.1244    0.0000 O   0  0  0  0  0  0  0  0  0  0  0  0
    4.5554   -3.2354    0.0000 O   0  0  0  0  0  0  0  0  0  0  0  0
    8.4375   -4.1851    0.0000 O   0  0  0  0  0  0  0  0  0  0  0  0
    9.9711   -2.1433    0.0000 O   0  0  0  0  0  0  0  0  0  0  0  0
    3.4853   -1.7761    0.0000 O   0  0  0  0  0  0  0  0  0  0  0  0
   12.3020   -2.5673    0.0000 O   0  0  0  0  0  0  0  0  0  0  0  0
    5.4029   -4.6608    0.0000 O   0  0  0  0  0  0  0  0  0  0  0  0
   12.0483   -0.3706    0.0000 O   0  0  0  0  0  0  0  0  0  0  0  0
    2.1287   -3.4242    0.0000 O   0  0  0  0  0  0  0  0  0  0  0  0
   13.7501   -2.3779    0.0000 O   0  0  0  0  0  0  0  0  0  0  0  0
   14.2862    0.0559    0.0000 O   0  0  0  0  0  0  0  0  0  0  0  0
   19.9046    1.9707    0.0000 O   0  0  0  0  0  0  0  0  0  0  0  0
   18.1777    3.3683    0.0000 O   0  0  0  0  0  0  0  0  0  0  0  0
   15.0949    2.1858    0.0000 O   0  0  0  0  0  0  0  0  0  0  0  0
   17.1671    1.4494    0.0000 O   0  0  0  0  0  0  0  0  0  0  0  0
   20.9819    3.9963    0.0000 O   0  0  0  0  0  0  0  0  0  0  0  0
   19.4549    4.4659    0.0000 O   0  0  0  0  0  0  0  0  0  0  0  0
   22.7096    1.9071    0.0000 O   0  0  0  0  0  0  0  0  0  0  0  0
   23.0782    3.2641    0.0000 O   0  0  0  0  0  0  0  0  0  0  0  0
   24.6960    4.7293    0.0000 O   0  0  0  0  0  0  0  0  0  0  0  0
    5.9674   -2.3199    0.0000 C   0  0  0  0  0  0  0  0  0  0  0  0
    5.5399   -3.1655    0.0000 C   0  0  0  0  0  0  0  0  0  0  0  0
    7.6072   -3.6913    0.0000 C   0  0  0  0  0  0  0  0  0  0  0  0
    5.4401   -1.4856    0.0000 C   0  0  0  0  0  0  0  0  0  0  0  0
    7.6271   -2.7254    0.0000 C   0  0  0  0  0  0  0  0  0  0  0  0
    4.4542   -1.5328    0.0000 C   0  0  0  0  0  0  0  0  0  0  0  0
    4.0089   -2.4136    0.0000 C   0  0  0  0  0  0  0  0  0  0  0  0
    6.8505   -4.2616    0.0000 C   0  0  0  0  0  0  0  0  0  0  0  0
    5.9322   -4.0280    0.0000 C   0  0  0  0  0  0  0  0  0  0  0  0
    9.2958   -2.7791    0.0000 C   0  0  0  0  0  0  0  0  0  0  0  0
    9.2767   -3.7064    0.0000 C   0  0  0  0  0  0  0  0  0  0  0  0
    8.4771   -2.2662    0.0000 C   0  0  0  0  0  0  0  0  0  0  0  0
   10.8979   -2.1801    0.0000 C   0  0  0  0  0  0  0  0  0  0  0  0
   11.4871   -2.7827    0.0000 C   0  0  0  0  0  0  0  0  0  0  0  0
   12.5166   -1.7523    0.0000 C   0  0  0  0  0  0  0  0  0  0  0  0
    3.5645   -3.1085    0.0000 C   0  0  0  0  0  0  0  0  0  0  0  0
    9.9252   -4.3695    0.0000 C   0  0  0  0  0  0  0  0  0  0  0  0
   11.9509   -1.1738    0.0000 C   0  0  0  0  0  0  0  0  0  0  0  0
   10.8527   -4.3710    0.0000 C   0  0  0  0  0  0  0  0  0  0  0  0
   11.1313   -1.3703    0.0000 C   0  0  0  0  0  0  0  0  0  0  0  0
   11.5033   -3.7100    0.0000 C   0  0  0  0  0  0  0  0  0  0  0  0
    5.8207   -0.7537    0.0000 C   0  0  0  0  0  0  0  0  0  0  0  0
    4.0054   -0.8406    0.0000 C   0  0  0  0  0  0  0  0  0  0  0  0
    2.7662   -2.9006    0.0000 C   0  0  0  0  0  0  0  0  0  0  0  0
    7.0131   -5.0704    0.0000 C   0  0  0  0  0  0  0  0  0  0  0  0
   13.3219   -1.6729    0.0000 C   0  0  0  0  0  0  0  0  0  0  0  0
    2.7172   -2.0772    0.0000 C   0  0  0  0  0  0  0  0  0  0  0  0
   13.7635   -0.9949    0.0000 C   0  0  0  0  0  0  0  0  0  0  0  0
   13.0934   -2.3421    0.0000 C   0  0  0  0  0  0  0  0  0  0  0  0
   13.5110   -0.2262    0.0000 C   0  0  0  0  0  0  0  0  0  0  0  0
   12.7358    0.0559    0.0000 C   0  0  0  0  0  0  0  0  0  0  0  0
   11.1708   -5.1322    0.0000 C   0  0  0  0  0  0  0  0  0  0  0  0
   12.3233    0.7703    0.0000 C   0  0  0  0  0  0  0  0  0  0  0  0
   14.6987    0.7703    0.0000 C   0  0  0  0  0  0  0  0  0  0  0  0
   18.9567    3.0916    0.0000 C   0  0  0  0  0  0  0  0  0  0  0  0
   19.1001    2.2775    0.0000 C   0  0  0  0  0  0  0  0  0  0  0  0
   14.5554    1.5828    0.0000 C   0  0  0  0  0  0  0  0  0  0  0  0
   19.6075    3.6551    0.0000 C   0  0  0  0  0  0  0  0  0  0  0  0
   12.4666    1.5828    0.0000 C   0  0  0  0  0  0  0  0  0  0  0  0
   20.4189    3.3669    0.0000 C   0  0  0  0  0  0  0  0  0  0  0  0
   17.6906    2.0458    0.0000 C   0  0  0  0  0  0  0  0  0  0  0  0
   18.4628    1.7511    0.0000 C   0  0  0  0  0  0  0  0  0  0  0  0
   20.5685    2.5190    0.0000 C   0  0  0  0  0  0  0  0  0  0  0  0
   17.5527    2.8273    0.0000 C   0  0  0  0  0  0  0  0  0  0  0  0
   13.9235    2.1131    0.0000 C   0  0  0  0  0  0  0  0  0  0  0  0
   16.3743    1.4847    0.0000 C   0  0  0  0  0  0  0  0  0  0  0  0
   15.9028    2.1423    0.0000 C   0  0  0  0  0  0  0  0  0  0  0  0
   15.4119    0.3882    0.0000 C   0  0  0  0  0  0  0  0  0  0  0  0
   21.3128    2.1201    0.0000 C   0  0  0  0  0  0  0  0  0  0  0  0
   13.0985    2.1131    0.0000 C   0  0  0  0  0  0  0  0  0  0  0  0
   16.1562    0.7055    0.0000 C   0  0  0  0  0  0  0  0  0  0  0  0
   22.0896    2.4513    0.0000 C   0  0  0  0  0  0  0  0  0  0  0  0
   16.8568    3.2087    0.0000 C   0  0  0  0  0  0  0  0  0  0  0  0
   16.1239    2.9044    0.0000 C   0  0  0  0  0  0  0  0  0  0  0  0
   21.8252    3.9508    0.0000 C   0  0  0  0  0  0  0  0  0  0  0  0
   22.3173    3.2645    0.0000 C   0  0  0  0  0  0  0  0  0  0  0  0
   22.2217    4.6743    0.0000 C   0  0  0  0  0  0  0  0  0  0  0  0
   23.0465    4.6926    0.0000 C   0  0  0  0  0  0  0  0  0  0  0  0
   23.4747    3.9875    0.0000 C   0  0  0  0  0  0  0  0  0  0  0  0
   24.2995    4.0059    0.0000 C   0  0  0  0  0  0  0  0  0  0  0  0
  1 21  1  0  0  0  0 
  1 25  1  0  0  0  0 
  2 22  1  0  0  0  0 
  2 27  1  0  0  0  0 
  3 23  1  0  0  0  0 
  3 31  1  0  0  0  0 
  4 30  1  0  0  0  0 
  4 33  1  0  0  0  0 
  5 27  1  0  0  0  0 
  5 47  1  0  0  0  0 
  6 34  1  0  0  0  0 
  6 35  1  0  0  0  0 
  7 29  1  0  0  0  0 
  8 38  1  0  0  0  0 
  8 51  1  0  0  0  0 
  9 44  1  0  0  0  0 
 10 46  1  0  0  0  0 
 11 50  1  0  0  0  0 
 11 54  1  0  0  0  0 
 12 56  1  0  0  0  0 
 12 63  1  0  0  0  0 
 13 55  1  0  0  0  0 
 13 64  1  0  0  0  0 
 14 57  1  0  0  0  0 
 14 67  1  0  0  0  0 
 15 61  1  0  0  0  0 
 15 66  1  0  0  0  0 
 16 60  1  0  0  0  0 
 16 75  1  0  0  0  0 
 17 58  1  0  0  0  0 
 18 72  1  0  0  0  0 
 19 79  1  0  0  0  0 
 20 80  1  0  0  0  0 
 21 22  1  0  0  0  0 
 21 24  1  0  0  0  0 
 22 29  1  0  0  0  0 
 23 25  1  0  0  0  0 
 23 28  1  0  0  0  0 
 24 26  1  0  0  0  0 
 24 42  1  0  0  0  0 
 25 32  1  0  0  0  0 
 26 27  1  0  0  0  0 
 26 43  1  0  0  0  0 
 27 36  1  0  0  0  0 
 28 29  1  0  0  0  0 
 28 45  1  0  0  0  0 
 30 31  1  0  0  0  0 
 30 32  1  0  0  0  0 
 31 37  1  0  0  0  0 
 33 34  1  0  0  0  0 
 33 40  1  0  0  0  0 
 34 41  1  0  0  0  0 
 35 38  1  0  0  0  0 
 35 46  1  0  0  0  0 
 35 49  1  0  0  0  0 
 36 44  1  0  0  0  0 
 37 39  1  0  0  0  0 
 38 40  1  0  0  0  0 
 39 41  1  0  0  0  0 
 39 52  1  0  0  0  0 
 44 47  1  0  0  0  0 
 46 48  1  0  0  0  0 
 48 50  1  0  0  0  0 
 50 51  1  0  0  0  0 
 51 53  1  0  0  0  0 
 53 59  1  0  0  0  0 
 54 57  1  0  0  0  0 
 54 68  1  0  0  0  0 
 55 56  1  0  0  0  0 
 55 58  1  0  0  0  0 
 56 62  1  0  0  0  0 
 57 65  1  0  0  0  0 
 58 60  1  0  0  0  0 
 59 70  2  0  0  0  0 
 60 63  1  0  0  0  0 
 61 62  1  0  0  0  0 
 61 64  1  0  0  0  0 
 63 69  1  0  0  0  0 
 64 73  1  0  0  0  0 
 65 70  1  0  0  0  0 
 66 67  1  0  0  0  0 
 66 71  1  0  0  0  0 
 67 74  1  0  0  0  0 
 68 71  2  0  0  0  0 
 69 72  1  0  0  0  0 
 72 76  1  0  0  0  0 
 73 74  2  0  0  0  0 
 75 76  1  0  0  0  0 
 75 77  1  0  0  0  0 
 77 78  2  0  0  0  0 
 78 79  1  0  0  0  0 
 79 80  1  0  0  0  0 
M  END
> <ID>
CHEBI:192153

> <NAME>
6,7-Dihydro-7-hydroxyciguatoxin

$$$$
131752631
  CDK     0404242200

 79 91  0  0  0  0  0  0  0  0999 V2000
    5.8273   -2.1243    0.0000 O   0  0  0  0  0  0  0  0  0  0  0  0
    3.4882   -3.2354    0.0000 O   0  0  0  0  0  0  0  0  0  0  0  0
    7.3702   -4.1851    0.0000 O   0  0  0  0  0  0  0  0  0  0  0  0
    8.9038   -2.1433    0.0000 O   0  0  0  0  0  0  0  0  0  0  0  0
    2.4179   -1.7761    0.0000 O   0  0  0  0  0  0  0  0  0  0  0  0
   11.2347   -2.5673    0.0000 O   0  0  0  0  0  0  0  0  0  0  0  0
    4.3365   -0.6615    0.0000 O   0  0  0  0  0  0  0  0  0  0  0  0
    4.3356   -4.6608    0.0000 O   0  0  0  0  0  0  0  0  0  0  0  0
   10.9809   -0.3706    0.0000 O   0  0  0  0  0  0  0  0  0  0  0  0
   12.6827   -2.3779    0.0000 O   0  0  0  0  0  0  0  0  0  0  0  0
   13.2189    0.0559    0.0000 O   0  0  0  0  0  0  0  0  0  0  0  0
   14.0276    2.1858    0.0000 O   0  0  0  0  0  0  0  0  0  0  0  0
   17.1103    3.3683    0.0000 O   0  0  0  0  0  0  0  0  0  0  0  0
   16.0997    1.4494    0.0000 O   0  0  0  0  0  0  0  0  0  0  0  0
   18.8373    1.9707    0.0000 O   0  0  0  0  0  0  0  0  0  0  0  0
   19.9146    3.9963    0.0000 O   0  0  0  0  0  0  0  0  0  0  0  0
   18.3876    4.4659    0.0000 O   0  0  0  0  0  0  0  0  0  0  0  0
   22.0109    3.2641    0.0000 O   0  0  0  0  0  0  0  0  0  0  0  0
   23.6604    3.3008    0.0000 O   0  0  0  0  0  0  0  0  0  0  0  0
    4.9002   -2.3199    0.0000 C   0  0  0  0  0  0  0  0  0  0  0  0
    4.4727   -3.1654    0.0000 C   0  0  0  0  0  0  0  0  0  0  0  0
    4.3728   -1.4856    0.0000 C   0  0  0  0  0  0  0  0  0  0  0  0
    6.5399   -3.6913    0.0000 C   0  0  0  0  0  0  0  0  0  0  0  0
    3.3869   -1.5328    0.0000 C   0  0  0  0  0  0  0  0  0  0  0  0
    6.5598   -2.7254    0.0000 C   0  0  0  0  0  0  0  0  0  0  0  0
    2.9416   -2.4136    0.0000 C   0  0  0  0  0  0  0  0  0  0  0  0
    5.7832   -4.2616    0.0000 C   0  0  0  0  0  0  0  0  0  0  0  0
    4.8649   -4.0280    0.0000 C   0  0  0  0  0  0  0  0  0  0  0  0
    8.2285   -2.7791    0.0000 C   0  0  0  0  0  0  0  0  0  0  0  0
    7.4098   -2.2662    0.0000 C   0  0  0  0  0  0  0  0  0  0  0  0
    8.2094   -3.7064    0.0000 C   0  0  0  0  0  0  0  0  0  0  0  0
    9.8306   -2.1801    0.0000 C   0  0  0  0  0  0  0  0  0  0  0  0
   10.4199   -2.7827    0.0000 C   0  0  0  0  0  0  0  0  0  0  0  0
    2.4971   -3.1085    0.0000 C   0  0  0  0  0  0  0  0  0  0  0  0
   11.4493   -1.7523    0.0000 C   0  0  0  0  0  0  0  0  0  0  0  0
    8.8579   -4.3695    0.0000 C   0  0  0  0  0  0  0  0  0  0  0  0
   10.8836   -1.1738    0.0000 C   0  0  0  0  0  0  0  0  0  0  0  0
    9.7854   -4.3709    0.0000 C   0  0  0  0  0  0  0  0  0  0  0  0
   10.0640   -1.3703    0.0000 C   0  0  0  0  0  0  0  0  0  0  0  0
   10.4359   -3.7100    0.0000 C   0  0  0  0  0  0  0  0  0  0  0  0
    5.0684   -1.0421    0.0000 C   0  0  0  0  0  0  0  0  0  0  0  0
    2.9381   -0.8405    0.0000 C   0  0  0  0  0  0  0  0  0  0  0  0
    5.9458   -5.0703    0.0000 C   0  0  0  0  0  0  0  0  0  0  0  0
    1.6988   -2.9006    0.0000 C   0  0  0  0  0  0  0  0  0  0  0  0
   12.2545   -1.6728    0.0000 C   0  0  0  0  0  0  0  0  0  0  0  0
    1.6499   -2.0772    0.0000 C   0  0  0  0  0  0  0  0  0  0  0  0
   12.6962   -0.9949    0.0000 C   0  0  0  0  0  0  0  0  0  0  0  0
   12.0261   -2.3421    0.0000 C   0  0  0  0  0  0  0  0  0  0  0  0
   11.6685    0.0559    0.0000 C   0  0  0  0  0  0  0  0  0  0  0  0
   12.4437   -0.2262    0.0000 C   0  0  0  0  0  0  0  0  0  0  0  0
   10.1035   -5.1321    0.0000 C   0  0  0  0  0  0  0  0  0  0  0  0
   11.2560    0.7703    0.0000 C   0  0  0  0  0  0  0  0  0  0  0  0
   13.6313    0.7703    0.0000 C   0  0  0  0  0  0  0  0  0  0  0  0
   13.4881    1.5828    0.0000 C   0  0  0  0  0  0  0  0  0  0  0  0
   11.3992    1.5828    0.0000 C   0  0  0  0  0  0  0  0  0  0  0  0
   12.8562    2.1130    0.0000 C   0  0  0  0  0  0  0  0  0  0  0  0
   18.0328    2.2775    0.0000 C   0  0  0  0  0  0  0  0  0  0  0  0
   17.8893    3.0916    0.0000 C   0  0  0  0  0  0  0  0  0  0  0  0
   16.6232    2.0458    0.0000 C   0  0  0  0  0  0  0  0  0  0  0  0
   14.3445    0.3882    0.0000 C   0  0  0  0  0  0  0  0  0  0  0  0
   17.3955    1.7511    0.0000 C   0  0  0  0  0  0  0  0  0  0  0  0
   12.0312    2.1130    0.0000 C   0  0  0  0  0  0  0  0  0  0  0  0
   15.3069    1.4847    0.0000 C   0  0  0  0  0  0  0  0  0  0  0  0
   14.8355    2.1422    0.0000 C   0  0  0  0  0  0  0  0  0  0  0  0
   16.4854    2.8273    0.0000 C   0  0  0  0  0  0  0  0  0  0  0  0
   18.5402    3.6551    0.0000 C   0  0  0  0  0  0  0  0  0  0  0  0
   19.3516    3.3669    0.0000 C   0  0  0  0  0  0  0  0  0  0  0  0
   19.5011    2.5190    0.0000 C   0  0  0  0  0  0  0  0  0  0  0  0
   15.0889    0.7055    0.0000 C   0  0  0  0  0  0  0  0  0  0  0  0
   15.7895    3.2087    0.0000 C   0  0  0  0  0  0  0  0  0  0  0  0
   15.0566    2.9044    0.0000 C   0  0  0  0  0  0  0  0  0  0  0  0
   20.2454    2.1201    0.0000 C   0  0  0  0  0  0  0  0  0  0  0  0
   20.7579    3.9508    0.0000 C   0  0  0  0  0  0  0  0  0  0  0  0
   21.0223    2.4513    0.0000 C   0  0  0  0  0  0  0  0  0  0  0  0
   21.2499    3.2645    0.0000 C   0  0  0  0  0  0  0  0  0  0  0  0
   21.1544    4.6743    0.0000 C   0  0  0  0  0  0  0  0  0  0  0  0
   21.9792    4.6926    0.0000 C   0  0  0  0  0  0  0  0  0  0  0  0
   22.4074    3.9875    0.0000 C   0  0  0  0  0  0  0  0  0  0  0  0
   23.2321    4.0059    0.0000 C   0  0  0  0  0  0  0  0  0  0  0  0
  1 20  1  0  0  0  0 
  1 25  1  0  0  0  0 
  2 21  1  0  0  0  0 
  2 26  1  0  0  0  0 
  3 23  1  0  0  0  0 
  3 31  1  0  0  0  0 
  4 29  1  0  0  0  0 
  4 32  1  0  0  0  0 
  5 26  1  0  0  0  0 
  5 46  1  0  0  0  0 
  6 33  1  0  0  0  0 
  6 35  1  0  0  0  0 
  7 22  1  0  0  0  0 
  8 28  1  0  0  0  0 
  9 37  1  0  0  0  0 
  9 49  1  0  0  0  0 
 10 45  1  0  0  0  0 
 11 50  1  0  0  0  0 
 11 53  1  0  0  0  0 
 12 54  1  0  0  0  0 
 12 64  1  0  0  0  0 
 13 58  1  0  0  0  0 
 13 65  1  0  0  0  0 
 14 59  1  0  0  0  0 
 14 63  1  0  0  0  0 
 15 57  1  0  0  0  0 
 15 68  1  0  0  0  0 
 16 67  1  0  0  0  0 
 16 73  1  0  0  0  0 
 17 66  1  0  0  0  0 
 18 78  1  0  0  0  0 
 19 79  1  0  0  0  0 
 20 21  1  0  0  0  0 
 20 22  1  0  0  0  0 
 21 28  1  0  0  0  0 
 22 24  1  0  0  0  0 
 22 41  1  0  0  0  0 
 23 25  1  0  0  0  0 
 23 27  1  0  0  0  0 
 24 26  1  0  0  0  0 
 24 42  1  0  0  0  0 
 25 30  1  0  0  0  0 
 26 34  1  0  0  0  0 
 27 28  1  0  0  0  0 
 27 43  1  0  0  0  0 
 29 30  1  0  0  0  0 
 29 31  1  0  0  0  0 
 31 36  1  0  0  0  0 
 32 33  1  0  0  0  0 
 32 39  1  0  0  0  0 
 33 40  1  0  0  0  0 
 34 44  1  0  0  0  0 
 35 37  1  0  0  0  0 
 35 45  1  0  0  0  0 
 35 48  1  0  0  0  0 
 36 38  1  0  0  0  0 
 37 39  1  0  0  0  0 
 38 40  1  0  0  0  0 
 38 51  1  0  0  0  0 
 44 46  1  0  0  0  0 
 45 47  1  0  0  0  0 
 47 50  1  0  0  0  0 
 49 50  1  0  0  0  0 
 49 52  1  0  0  0  0 
 52 55  1  0  0  0  0 
 53 54  1  0  0  0  0 
 53 60  1  0  0  0  0 
 54 56  1  0  0  0  0 
 55 62  2  0  0  0  0 
 56 62  1  0  0  0  0 
 57 58  1  0  0  0  0 
 57 61  1  0  0  0  0 
 58 66  1  0  0  0  0 
 59 61  1  0  0  0  0 
 59 65  1  0  0  0  0 
 60 69  2  0  0  0  0 
 63 64  1  0  0  0  0 
 63 69  1  0  0  0  0 
 64 71  1  0  0  0  0 
 65 70  1  0  0  0  0 
 66 67  1  0  0  0  0 
 67 68  1  0  0  0  0 
 68 72  1  0  0  0  0 
 70 71  2  0  0  0  0 
 72 74  1  0  0  0  0 
 73 75  1  0  0  0  0 
 73 76  1  0  0  0  0 
 74 75  2  0  0  0  0 
 76 77  2  0  0  0  0 
 77 78  1  0  0  0  0 
 78 79  1  0  0  0  0 
M  END
> <ID>
CHEBI:230101

> <NAME>
54-Deoxy-50-hydroxyciguatoxin

$$$$
131752632
  CDK     0404242200

 77 88  0  0  0  0  0  0  0  0999 V2000
    7.8455   -2.1243    0.0000 O   0  0  0  0  0  0  0  0  0  0  0  0
    9.3885   -4.1851    0.0000 O   0  0  0  0  0  0  0  0  0  0  0  0
   10.9221   -2.1433    0.0000 O   0  0  0  0  0  0  0  0  0  0  0  0
    5.5064   -3.2354    0.0000 O   0  0  0  0  0  0  0  0  0  0  0  0
   13.2529   -2.5672    0.0000 O   0  0  0  0  0  0  0  0  0  0  0  0
   12.9992   -0.3706    0.0000 O   0  0  0  0  0  0  0  0  0  0  0  0
    6.3539   -4.6607    0.0000 O   0  0  0  0  0  0  0  0  0  0  0  0
    4.2713   -2.8677    0.0000 O   0  0  0  0  0  0  0  0  0  0  0  0
   14.7009   -2.3778    0.0000 O   0  0  0  0  0  0  0  0  0  0  0  0
   15.2371    0.0559    0.0000 O   0  0  0  0  0  0  0  0  0  0  0  0
   16.0458    2.1858    0.0000 O   0  0  0  0  0  0  0  0  0  0  0  0
   19.1285    3.3683    0.0000 O   0  0  0  0  0  0  0  0  0  0  0  0
   18.1179    1.4494    0.0000 O   0  0  0  0  0  0  0  0  0  0  0  0
   20.8554    1.9706    0.0000 O   0  0  0  0  0  0  0  0  0  0  0  0
    2.1073   -2.5831    0.0000 O   0  0  0  0  0  0  0  0  0  0  0  0
   21.9328    3.9963    0.0000 O   0  0  0  0  0  0  0  0  0  0  0  0
   20.4058    4.4659    0.0000 O   0  0  0  0  0  0  0  0  0  0  0  0
    8.5581   -3.6912    0.0000 C   0  0  0  0  0  0  0  0  0  0  0  0
    8.5781   -2.7254    0.0000 C   0  0  0  0  0  0  0  0  0  0  0  0
    6.9184   -2.3198    0.0000 C   0  0  0  0  0  0  0  0  0  0  0  0
   10.2468   -2.7791    0.0000 C   0  0  0  0  0  0  0  0  0  0  0  0
    6.4909   -3.1654    0.0000 C   0  0  0  0  0  0  0  0  0  0  0  0
    7.8015   -4.2615    0.0000 C   0  0  0  0  0  0  0  0  0  0  0  0
   10.2276   -3.7063    0.0000 C   0  0  0  0  0  0  0  0  0  0  0  0
    9.4281   -2.2662    0.0000 C   0  0  0  0  0  0  0  0  0  0  0  0
    6.3911   -1.4856    0.0000 C   0  0  0  0  0  0  0  0  0  0  0  0
    6.8831   -4.0280    0.0000 C   0  0  0  0  0  0  0  0  0  0  0  0
   11.8488   -2.1801    0.0000 C   0  0  0  0  0  0  0  0  0  0  0  0
   12.4381   -2.7826    0.0000 C   0  0  0  0  0  0  0  0  0  0  0  0
   13.4675   -1.7523    0.0000 C   0  0  0  0  0  0  0  0  0  0  0  0
    5.4052   -1.5328    0.0000 C   0  0  0  0  0  0  0  0  0  0  0  0
   12.9018   -1.1738    0.0000 C   0  0  0  0  0  0  0  0  0  0  0  0
   10.8761   -4.3694    0.0000 C   0  0  0  0  0  0  0  0  0  0  0  0
   12.0822   -1.3702    0.0000 C   0  0  0  0  0  0  0  0  0  0  0  0
    4.9599   -2.4136    0.0000 C   0  0  0  0  0  0  0  0  0  0  0  0
   11.8036   -4.3709    0.0000 C   0  0  0  0  0  0  0  0  0  0  0  0
   12.4542   -3.7100    0.0000 C   0  0  0  0  0  0  0  0  0  0  0  0
   14.2727   -1.6728    0.0000 C   0  0  0  0  0  0  0  0  0  0  0  0
    7.9641   -5.0703    0.0000 C   0  0  0  0  0  0  0  0  0  0  0  0
   14.7144   -0.9949    0.0000 C   0  0  0  0  0  0  0  0  0  0  0  0
    6.7718   -0.7537    0.0000 C   0  0  0  0  0  0  0  0  0  0  0  0
    4.2223   -2.0441    0.0000 C   0  0  0  0  0  0  0  0  0  0  0  0
   14.4619   -0.2262    0.0000 C   0  0  0  0  0  0  0  0  0  0  0  0
   13.6867    0.0559    0.0000 C   0  0  0  0  0  0  0  0  0  0  0  0
   14.0443   -2.3420    0.0000 C   0  0  0  0  0  0  0  0  0  0  0  0
    4.9564   -0.8405    0.0000 C   0  0  0  0  0  0  0  0  0  0  0  0
   12.1217   -5.1321    0.0000 C   0  0  0  0  0  0  0  0  0  0  0  0
    3.5336   -2.4983    0.0000 C   0  0  0  0  0  0  0  0  0  0  0  0
   13.2742    0.7703    0.0000 C   0  0  0  0  0  0  0  0  0  0  0  0
   15.6496    0.7703    0.0000 C   0  0  0  0  0  0  0  0  0  0  0  0
   15.5063    1.5827    0.0000 C   0  0  0  0  0  0  0  0  0  0  0  0
    2.7959   -2.1289    0.0000 C   0  0  0  0  0  0  0  0  0  0  0  0
   13.4175    1.5827    0.0000 C   0  0  0  0  0  0  0  0  0  0  0  0
   20.0510    2.2775    0.0000 C   0  0  0  0  0  0  0  0  0  0  0  0
   19.9074    3.0916    0.0000 C   0  0  0  0  0  0  0  0  0  0  0  0
   14.8743    2.1130    0.0000 C   0  0  0  0  0  0  0  0  0  0  0  0
   18.6414    2.0458    0.0000 C   0  0  0  0  0  0  0  0  0  0  0  0
   19.4137    1.7511    0.0000 C   0  0  0  0  0  0  0  0  0  0  0  0
   16.3627    0.3882    0.0000 C   0  0  0  0  0  0  0  0  0  0  0  0
   18.5036    2.8273    0.0000 C   0  0  0  0  0  0  0  0  0  0  0  0
   20.5584    3.6551    0.0000 C   0  0  0  0  0  0  0  0  0  0  0  0
   17.3251    1.4847    0.0000 C   0  0  0  0  0  0  0  0  0  0  0  0
   16.8537    2.1422    0.0000 C   0  0  0  0  0  0  0  0  0  0  0  0
   14.0494    2.1130    0.0000 C   0  0  0  0  0  0  0  0  0  0  0  0
   21.3698    3.3669    0.0000 C   0  0  0  0  0  0  0  0  0  0  0  0
   21.5192    2.5190    0.0000 C   0  0  0  0  0  0  0  0  0  0  0  0
   17.1071    0.7055    0.0000 C   0  0  0  0  0  0  0  0  0  0  0  0
   17.8077    3.2086    0.0000 C   0  0  0  0  0  0  0  0  0  0  0  0
   17.0748    2.9044    0.0000 C   0  0  0  0  0  0  0  0  0  0  0  0
   22.2636    2.1201    0.0000 C   0  0  0  0  0  0  0  0  0  0  0  0
   22.7760    3.9508    0.0000 C   0  0  0  0  0  0  0  0  0  0  0  0
   23.0404    2.4513    0.0000 C   0  0  0  0  0  0  0  0  0  0  0  0
   23.2680    3.2645    0.0000 C   0  0  0  0  0  0  0  0  0  0  0  0
   23.1725    4.6743    0.0000 C   0  0  0  0  0  0  0  0  0  0  0  0
   23.9972    4.6926    0.0000 C   0  0  0  0  0  0  0  0  0  0  0  0
   24.4255    3.9875    0.0000 C   0  0  0  0  0  0  0  0  0  0  0  0
   25.2502    4.0059    0.0000 C   0  0  0  0  0  0  0  0  0  0  0  0
  1 19  1  0  0  0  0 
  1 20  1  0  0  0  0 
  2 18  1  0  0  0  0 
  2 24  1  0  0  0  0 
  3 21  1  0  0  0  0 
  3 28  1  0  0  0  0 
  4 22  1  0  0  0  0 
  4 35  1  0  0  0  0 
  5 29  1  0  0  0  0 
  5 30  1  0  0  0  0 
  6 32  1  0  0  0  0 
  6 44  1  0  0  0  0 
  7 27  1  0  0  0  0 
  8 35  1  0  0  0  0 
  9 38  1  0  0  0  0 
 10 43  1  0  0  0  0 
 10 50  1  0  0  0  0 
 11 51  1  0  0  0  0 
 11 63  1  0  0  0  0 
 12 55  1  0  0  0  0 
 12 60  1  0  0  0  0 
 13 57  1  0  0  0  0 
 13 62  1  0  0  0  0 
 14 54  1  0  0  0  0 
 14 66  1  0  0  0  0 
 15 52  1  0  0  0  0 
 16 65  1  0  0  0  0 
 16 71  1  0  0  0  0 
 17 61  1  0  0  0  0 
 18 19  1  0  0  0  0 
 18 23  1  0  0  0  0 
 19 25  1  0  0  0  0 
 20 22  1  0  0  0  0 
 20 26  1  0  0  0  0 
 21 24  1  0  0  0  0 
 21 25  1  0  0  0  0 
 22 27  1  0  0  0  0 
 23 27  1  0  0  0  0 
 23 39  1  0  0  0  0 
 24 33  1  0  0  0  0 
 26 31  1  0  0  0  0 
 26 41  1  0  0  0  0 
 28 29  1  0  0  0  0 
 28 34  1  0  0  0  0 
 29 37  1  0  0  0  0 
 30 32  1  0  0  0  0 
 30 38  1  0  0  0  0 
 30 45  1  0  0  0  0 
 31 35  1  0  0  0  0 
 31 46  1  0  0  0  0 
 32 34  1  0  0  0  0 
 33 36  1  0  0  0  0 
 35 42  1  0  0  0  0 
 36 37  1  0  0  0  0 
 36 47  1  0  0  0  0 
 38 40  1  0  0  0  0 
 40 43  1  0  0  0  0 
 42 48  1  0  0  0  0 
 43 44  1  0  0  0  0 
 44 49  1  0  0  0  0 
 48 52  1  0  0  0  0 
 49 53  1  0  0  0  0 
 50 51  1  0  0  0  0 
 50 59  1  0  0  0  0 
 51 56  1  0  0  0  0 
 53 64  2  0  0  0  0 
 54 55  1  0  0  0  0 
 54 58  1  0  0  0  0 
 55 61  1  0  0  0  0 
 56 64  1  0  0  0  0 
 57 58  1  0  0  0  0 
 57 60  1  0  0  0  0 
 59 67  2  0  0  0  0 
 60 68  1  0  0  0  0 
 61 65  1  0  0  0  0 
 62 63  1  0  0  0  0 
 62 67  1  0  0  0  0 
 63 69  1  0  0  0  0 
 65 66  1  0  0  0  0 
 66 70  1  0  0  0  0 
 68 69  2  0  0  0  0 
 70 72  1  0  0  0  0 
 71 73  1  0  0  0  0 
 71 74  1  0  0  0  0 
 72 73  2  0  0  0  0 
 74 75  2  0  0  0  0 
 75 76  1  0  0  0  0 
 76 77  2  0  0  0  0 
M  END
> <ID>
CHEBI:230147

> <NAME>
M-Secociguatoxin 4A

$$$$
131752629
  CDK     0425242201

 81 93  0  0  0  0  0  0  0  0999 V2000
    6.8946   -2.8386    0.0000 O   0  0  0  0  0  0  0  0  0  0  0  0
    4.5554   -3.9497    0.0000 O   0  0  0  0  0  0  0  0  0  0  0  0
    8.4375   -4.8994    0.0000 O   0  0  0  0  0  0  0  0  0  0  0  0
    9.9711   -2.8577    0.0000 O   0  0  0  0  0  0  0  0  0  0  0  0
    3.4853   -2.4904    0.0000 O   0  0  0  0  0  0  0  0  0  0  0  0
   12.3020   -3.2815    0.0000 O   0  0  0  0  0  0  0  0  0  0  0  0
    5.4029   -5.3751    0.0000 O   0  0  0  0  0  0  0  0  0  0  0  0
   12.0483   -1.0848    0.0000 O   0  0  0  0  0  0  0  0  0  0  0  0
    2.1287   -4.1386    0.0000 O   0  0  0  0  0  0  0  0  0  0  0  0
   13.7501   -3.0922    0.0000 O   0  0  0  0  0  0  0  0  0  0  0  0
   14.2862   -0.6583    0.0000 O   0  0  0  0  0  0  0  0  0  0  0  0
   15.0949    1.4716    0.0000 O   0  0  0  0  0  0  0  0  0  0  0  0
   18.1777    2.6541    0.0000 O   0  0  0  0  0  0  0  0  0  0  0  0
   19.9046    1.2564    0.0000 O   0  0  0  0  0  0  0  0  0  0  0  0
   17.1671    0.7351    0.0000 O   0  0  0  0  0  0  0  0  0  0  0  0
   20.9819    3.2821    0.0000 O   0  0  0  0  0  0  0  0  0  0  0  0
   19.4549    3.7517    0.0000 O   0  0  0  0  0  0  0  0  0  0  0  0
   22.7096    1.1928    0.0000 O   0  0  0  0  0  0  0  0  0  0  0  0
   23.4747    3.2733    0.0000 O   0  0  0  0  0  0  0  0  0  0  0  0
   23.0147    5.4069    0.0000 O   0  0  0  0  0  0  0  0  0  0  0  0
   24.6642    5.4436    0.0000 O   0  0  0  0  0  0  0  0  0  0  0  0
    5.9674   -3.0341    0.0000 C   0  0  0  0  0  0  0  0  0  0  0  0
    5.5399   -3.8797    0.0000 C   0  0  0  0  0  0  0  0  0  0  0  0
    7.6072   -4.4055    0.0000 C   0  0  0  0  0  0  0  0  0  0  0  0
    5.4401   -2.1998    0.0000 C   0  0  0  0  0  0  0  0  0  0  0  0
    7.6271   -3.4397    0.0000 C   0  0  0  0  0  0  0  0  0  0  0  0
    4.4542   -2.2470    0.0000 C   0  0  0  0  0  0  0  0  0  0  0  0
    4.0089   -3.1278    0.0000 C   0  0  0  0  0  0  0  0  0  0  0  0
    6.8505   -4.9758    0.0000 C   0  0  0  0  0  0  0  0  0  0  0  0
    5.9322   -4.7423    0.0000 C   0  0  0  0  0  0  0  0  0  0  0  0
    9.2958   -3.4934    0.0000 C   0  0  0  0  0  0  0  0  0  0  0  0
    9.2767   -4.4206    0.0000 C   0  0  0  0  0  0  0  0  0  0  0  0
    8.4771   -2.9805    0.0000 C   0  0  0  0  0  0  0  0  0  0  0  0
   10.8979   -2.8944    0.0000 C   0  0  0  0  0  0  0  0  0  0  0  0
   11.4871   -3.4969    0.0000 C   0  0  0  0  0  0  0  0  0  0  0  0
   12.5166   -2.4665    0.0000 C   0  0  0  0  0  0  0  0  0  0  0  0
    3.5645   -3.8228    0.0000 C   0  0  0  0  0  0  0  0  0  0  0  0
    9.9252   -5.0837    0.0000 C   0  0  0  0  0  0  0  0  0  0  0  0
   11.9509   -1.8881    0.0000 C   0  0  0  0  0  0  0  0  0  0  0  0
   10.8527   -5.0852    0.0000 C   0  0  0  0  0  0  0  0  0  0  0  0
   11.1313   -2.0845    0.0000 C   0  0  0  0  0  0  0  0  0  0  0  0
   11.5033   -4.4243    0.0000 C   0  0  0  0  0  0  0  0  0  0  0  0
    5.8207   -1.4679    0.0000 C   0  0  0  0  0  0  0  0  0  0  0  0
    4.0054   -1.5548    0.0000 C   0  0  0  0  0  0  0  0  0  0  0  0
    2.7662   -3.6149    0.0000 C   0  0  0  0  0  0  0  0  0  0  0  0
    7.0131   -5.7846    0.0000 C   0  0  0  0  0  0  0  0  0  0  0  0
   13.3219   -2.3871    0.0000 C   0  0  0  0  0  0  0  0  0  0  0  0
    2.7172   -2.7914    0.0000 C   0  0  0  0  0  0  0  0  0  0  0  0
   13.7635   -1.7092    0.0000 C   0  0  0  0  0  0  0  0  0  0  0  0
   13.0934   -3.0563    0.0000 C   0  0  0  0  0  0  0  0  0  0  0  0
   12.7358   -0.6583    0.0000 C   0  0  0  0  0  0  0  0  0  0  0  0
   13.5110   -0.9405    0.0000 C   0  0  0  0  0  0  0  0  0  0  0  0
   11.1708   -5.8464    0.0000 C   0  0  0  0  0  0  0  0  0  0  0  0
   12.3233    0.0561    0.0000 C   0  0  0  0  0  0  0  0  0  0  0  0
   14.6987    0.0561    0.0000 C   0  0  0  0  0  0  0  0  0  0  0  0
   14.5554    0.8685    0.0000 C   0  0  0  0  0  0  0  0  0  0  0  0
   12.4666    0.8685    0.0000 C   0  0  0  0  0  0  0  0  0  0  0  0
   18.9567    2.3774    0.0000 C   0  0  0  0  0  0  0  0  0  0  0  0
   19.1001    1.5633    0.0000 C   0  0  0  0  0  0  0  0  0  0  0  0
   17.6906    1.3316    0.0000 C   0  0  0  0  0  0  0  0  0  0  0  0
   19.6076    2.9409    0.0000 C   0  0  0  0  0  0  0  0  0  0  0  0
   18.4628    1.0369    0.0000 C   0  0  0  0  0  0  0  0  0  0  0  0
   20.4189    2.6527    0.0000 C   0  0  0  0  0  0  0  0  0  0  0  0
   13.9235    1.3988    0.0000 C   0  0  0  0  0  0  0  0  0  0  0  0
   17.5527    2.1131    0.0000 C   0  0  0  0  0  0  0  0  0  0  0  0
   20.5685    1.8048    0.0000 C   0  0  0  0  0  0  0  0  0  0  0  0
   16.3743    0.7704    0.0000 C   0  0  0  0  0  0  0  0  0  0  0  0
   15.4119   -0.3260    0.0000 C   0  0  0  0  0  0  0  0  0  0  0  0
   15.9028    1.4280    0.0000 C   0  0  0  0  0  0  0  0  0  0  0  0
   13.0985    1.3988    0.0000 C   0  0  0  0  0  0  0  0  0  0  0  0
   16.1562   -0.0087    0.0000 C   0  0  0  0  0  0  0  0  0  0  0  0
   21.3128    1.4059    0.0000 C   0  0  0  0  0  0  0  0  0  0  0  0
   16.8568    2.4944    0.0000 C   0  0  0  0  0  0  0  0  0  0  0  0
   16.1239    2.1901    0.0000 C   0  0  0  0  0  0  0  0  0  0  0  0
   21.8252    3.2366    0.0000 C   0  0  0  0  0  0  0  0  0  0  0  0
   22.3173    2.5503    0.0000 C   0  0  0  0  0  0  0  0  0  0  0  0
   22.0896    1.7370    0.0000 C   0  0  0  0  0  0  0  0  0  0  0  0
   22.2217    3.9601    0.0000 C   0  0  0  0  0  0  0  0  0  0  0  0
   23.0465    3.9784    0.0000 C   0  0  0  0  0  0  0  0  0  0  0  0
   23.4430    4.7018    0.0000 C   0  0  0  0  0  0  0  0  0  0  0  0
   24.2678    4.7202    0.0000 C   0  0  0  0  0  0  0  0  0  0  0  0
  1 22  1  0  0  0  0 
  1 26  1  0  0  0  0 
  2 23  1  0  0  0  0 
  2 28  1  0  0  0  0 
  3 24  1  0  0  0  0 
  3 32  1  0  0  0  0 
  4 31  1  0  0  0  0 
  4 34  1  0  0  0  0 
  5 28  1  0  0  0  0 
  5 48  1  0  0  0  0 
  6 35  1  0  0  0  0 
  6 36  1  0  0  0  0 
  7 30  1  0  0  0  0 
  8 39  1  0  0  0  0 
  8 51  1  0  0  0  0 
  9 45  1  0  0  0  0 
 10 47  1  0  0  0  0 
 11 52  1  0  0  0  0 
 11 55  1  0  0  0  0 
 12 56  1  0  0  0  0 
 12 69  1  0  0  0  0 
 13 58  1  0  0  0  0 
 13 65  1  0  0  0  0 
 14 59  1  0  0  0  0 
 14 66  1  0  0  0  0 
 15 60  1  0  0  0  0 
 15 67  1  0  0  0  0 
 16 63  1  0  0  0  0 
 16 75  1  0  0  0  0 
 17 61  1  0  0  0  0 
 18 77  2  0  0  0  0 
 19 79  1  0  0  0  0 
 20 80  1  0  0  0  0 
 21 81  1  0  0  0  0 
 22 23  1  0  0  0  0 
 22 25  1  0  0  0  0 
 23 30  1  0  0  0  0 
 24 26  1  0  0  0  0 
 24 29  1  0  0  0  0 
 25 27  1  0  0  0  0 
 25 43  1  0  0  0  0 
 26 33  1  0  0  0  0 
 27 28  1  0  0  0  0 
 27 44  1  0  0  0  0 
 28 37  1  0  0  0  0 
 29 30  1  0  0  0  0 
 29 46  1  0  0  0  0 
 31 32  1  0  0  0  0 
 31 33  1  0  0  0  0 
 32 38  1  0  0  0  0 
 34 35  1  0  0  0  0 
 34 41  1  0  0  0  0 
 35 42  1  0  0  0  0 
 36 39  1  0  0  0  0 
 36 47  1  0  0  0  0 
 36 50  1  0  0  0  0 
 37 45  1  0  0  0  0 
 38 40  1  0  0  0  0 
 39 41  1  0  0  0  0 
 40 42  1  0  0  0  0 
 40 53  1  0  0  0  0 
 45 48  1  0  0  0  0 
 47 49  1  0  0  0  0 
 49 52  1  0  0  0  0 
 51 52  1  0  0  0  0 
 51 54  1  0  0  0  0 
 54 57  1  0  0  0  0 
 55 56  1  0  0  0  0 
 55 68  1  0  0  0  0 
 56 64  1  0  0  0  0 
 57 70  2  0  0  0  0 
 58 59  1  0  0  0  0 
 58 61  1  0  0  0  0 
 59 62  1  0  0  0  0 
 60 62  1  0  0  0  0 
 60 65  1  0  0  0  0 
 61 63  1  0  0  0  0 
 63 66  1  0  0  0  0 
 64 70  1  0  0  0  0 
 65 73  1  0  0  0  0 
 66 72  1  0  0  0  0 
 67 69  1  0  0  0  0 
 67 71  1  0  0  0  0 
 68 71  2  0  0  0  0 
 69 74  1  0  0  0  0 
 72 77  1  0  0  0  0 
 73 74  2  0  0  0  0 
 75 76  1  0  0  0  0 
 75 78  1  0  0  0  0 
 76 77  1  0  0  0  0 
 78 79  1  0  0  0  0 
 79 80  1  0  0  0  0 
 80 81  1  0  0  0  0 
M  END
> <ID>
CHEBI:230890

> <NAME>
3-Hydroxy-7-oxociguatoxin

$$$$

Marvin  04240712162D          

 23 24  0  0  1  0            999 V2000
    1.3373   -1.9616    0.0000 C   0  0  0  0  0  0  0  0  0  0  0  0
    0.6228   -1.5491    0.0000 O   0  0  0  0  0  0  0  0  0  0  0  0
    0.6228   -0.7241    0.0000 C   0  0  1  0  0  0  0  0  0  0  0  0
    0.6228    0.9259    0.0000 C   0  0  2  0  0  0  0  0  0  0  0  0
    1.3373   -0.3116    0.0000 C   0  0  0  0  0  0  0  0  0  0  0  0
    1.3373    0.5134    0.0000 C   0  0  1  0  0  0  0  0  0  0  0  0
    2.0518    0.9259    0.0000 C   0  0  0  0  0  0  0  0  0  0  0  0
   -1.3612    0.1009    0.0000 C   0  0  0  0  0  0  0  0  0  0  0  0
    1.3373   -2.7866    0.0000 O   0  0  0  0  0  0  0  0  0  0  0  0
    2.0518   -1.5491    0.0000 C   0  0  0  0  0  0  0  0  0  0  0  0
   -1.4893   -1.1185    0.0000 C   0  0  0  0  0  0  0  0  0  0  0  0
   -1.5907    1.1809    0.0000 C   0  0  0  0  0  0  0  0  0  0  0  0
   -0.8762    0.7684    0.0000 C   0  0  1  0  0  0  0  0  0  0  0  0
    0.6228    1.7509    0.0000 C   0  0  0  0  0  0  0  0  0  0  0  0
    1.3373    2.1634    0.0000 O   0  0  0  0  0  0  0  0  0  0  0  0
   -0.0916    0.5134    0.0000 C   0  0  1  0  0  0  0  0  0  0  0  0
   -0.0916    1.3384    0.0000 O   0  0  0  0  0  0  0  0  0  0  0  0
   -0.0916   -0.3116    0.0000 C   0  0  2  0  0  0  0  0  0  0  0  0
   -0.0916   -1.1366    0.0000 H   0  0  0  0  0  0  0  0  0  0  0  0
   -0.8762   -0.5665    0.0000 C   0  0  3  0  0  0  0  0  0  0  0  0
   -0.8762   -1.3915    0.0000 C   0  0  0  0  0  0  0  0  0  0  0  0
   -0.8762    1.5934    0.0000 C   0  0  0  0  0  0  0  0  0  0  0  0
   -1.5907    2.0059    0.0000 O   0  0  0  0  0  0  0  0  0  0  0  0
  1 10  1  0  0  0  0
  1  9  2  0  0  0  0
  1  2  1  0  0  0  0
 18  3  1  0  0  0  0
 16  4  1  0  0  0  0
  3  5  1  0  0  0  0
 16 18  1  0  0  0  0
 18 20  1  0  0  0  0
 20  8  1  0  0  0  0
  8 13  1  0  0  0  0
 13 16  1  0  0  0  0
  3  2  1  6  0  0  0
  4  6  1  0  0  0  0
  4 14  1  1  0  0  0
  6  7  1  6  0  0  0
  5  6  1  0  0  0  0
 20 11  1  0  0  0  0
 13 12  1  1  0  0  0
 13 22  1  6  0  0  0
 14 15  2  0  0  0  0
 16 17  1  6  0  0  0
 18 19  1  6  0  0  0
 20 21  1  0  0  0  0
 22 23  2  0  0  0  0
M  END
> <ID>
CHEBI:3159

> <NAME>
botrydial

$$$$

Marvin  11130809292D          

 22 25  0  0  1  0            999 V2000
    0.0000   -1.6500    0.0000 C   0  0  1  0  0  0  0  0  0  0  0  0
    0.7145   -1.2375    0.0000 C   0  0  1  0  0  0  0  0  0  0  0  0
   -0.7145   -1.2375    0.0000 C   0  0  0  0  0  0  0  0  0  0  0  0
    0.1715   -2.4570    0.0000 O   0  0  0  0  0  0  0  0  0  0  0  0
    1.3276   -1.7896    0.0000 C   0  0  0  0  0  0  0  0  0  0  0  0
    0.7145   -0.4125    0.0000 C   0  0  0  0  0  0  0  0  0  0  0  0
   -0.7145   -0.4125    0.0000 C   0  0  0  0  0  0  0  0  0  0  0  0
   -1.4289   -1.6500    0.0000 C   0  0  0  0  0  0  0  0  0  0  0  0
    0.9920   -2.5433    0.0000 C   0  0  0  0  0  0  0  0  0  0  0  0
    2.1481   -1.7033    0.0000 C   0  0  0  0  0  0  0  0  0  0  0  0
    0.0000    0.0000    0.0000 O   0  0  0  0  0  0  0  0  0  0  0  0
   -1.4289    0.0000    0.0000 C   0  0  0  0  0  0  0  0  0  0  0  0
   -2.1434   -1.2375    0.0000 C   0  0  0  0  0  0  0  0  0  0  0  0
    1.4769   -3.2107    0.0000 C   0  0  0  0  0  0  0  0  0  0  0  0
    2.6330   -2.3708    0.0000 C   0  0  0  0  0  0  0  0  0  0  0  0
   -2.1434   -0.4125    0.0000 C   0  0  0  0  0  0  0  0  0  0  0  0
    2.2974   -3.1245    0.0000 C   0  0  0  0  0  0  0  0  0  0  0  0
   -2.8579    0.0000    0.0000 O   0  0  0  0  0  0  0  0  0  0  0  0
    2.7823   -3.7919    0.0000 O   0  0  0  0  0  0  0  0  0  0  0  0
    3.6028   -3.7057    0.0000 C   0  0  0  0  0  0  0  0  0  0  0  0
    1.4290   -0.8250    0.0000 H   0  0  0  0  0  0  0  0  0  0  0  0
   -0.7145   -2.0625    0.0000 H   0  0  0  0  0  0  0  0  0  0  0  0
  1  2  1  0  0  0  0
  1  3  1  0  0  0  0
  1  4  1  0  0  0  0
  2  5  1  0  0  0  0
  2  6  1  0  0  0  0
  3  7  2  0  0  0  0
  3  8  1  0  0  0  0
  4  9  1  0  0  0  0
  5 10  2  0  0  0  0
  6 11  1  0  0  0  0
  7 12  1  0  0  0  0
  8 13  2  0  0  0  0
  9 14  2  0  0  0  0
 10 15  1  0  0  0  0
 12 16  2  0  0  0  0
 14 17  1  0  0  0  0
 16 18  1  0  0  0  0
 17 19  1  0  0  0  0
 19 20  1  0  0  0  0
  5  9  1  0  0  0  0
  7 11  1  0  0  0  0
 13 16  1  0  0  0  0
 15 17  2  0  0  0  0
  2 21  1  1  0  0  0
  1 22  1  1  0  0  0
M  END
> <ID>
CHEBI:6714

> <NAME>
(+)-medicarpin

$$$$

Marvin  02111116432D          

 18 18  0  0  0  0            999 V2000
    0.0000    0.8250    0.0000 O   0  0  0  0  0  0  0  0  0  0  0  0
   -0.7145    0.4125    0.0000 C   0  0  1  0  0  0  0  0  0  0  0  0
    0.7145    0.4125    0.0000 C   0  0  2  0  0  0  0  0  0  0  0  0
    0.7145   -0.4125    0.0000 C   0  0  1  0  0  0  0  0  0  0  0  0
    0.0000   -0.8250    0.0000 C   0  0  2  0  0  0  0  0  0  0  0  0
   -0.7145   -0.4125    0.0000 C   0  0  2  0  0  0  0  0  0  0  0  0
    1.4289    0.8250    0.0000 O   0  0  0  0  0  0  0  0  0  0  0  0
    1.4289   -0.8250    0.0000 O   0  0  0  0  0  0  0  0  0  0  0  0
    0.0000   -1.6500    0.0000 O   0  0  0  0  0  0  0  0  0  0  0  0
    2.8579    0.8250    0.0000 C   0  0  0  0  0  0  0  0  0  0  0  0
   -1.4289   -0.8250    0.0000 O   0  0  0  0  0  0  0  0  0  0  0  0
    3.5724    0.4125    0.0000 C   0  0  0  0  0  0  0  0  0  0  0  0
    4.2868    0.8250    0.0000 N   0  3  0  0  0  0  0  0  0  0  0  0
    4.2868    1.6500    0.0000 O   0  0  0  0  0  0  0  0  0  0  0  0
    5.0013    0.4125    0.0000 O   0  5  0  0  0  0  0  0  0  0  0  0
    2.1434    0.4125    0.0000 C   0  0  0  0  0  0  0  0  0  0  0  0
   -1.4289    0.8250    0.0000 C   0  0  0  0  0  0  0  0  0  0  0  0
   -2.1434    0.4125    0.0000 O   0  0  0  0  0  0  0  0  0  0  0  0
  1  2  1  0  0  0  0
  2 17  1  1  0  0  0
  3  1  1  0  0  0  0
  3  7  1  1  0  0  0
  3  4  1  0  0  0  0
  4  8  1  6  0  0  0
  4  5  1  0  0  0  0
  5  9  1  1  0  0  0
  5  6  1  0  0  0  0
  2  6  1  0  0  0  0
  6 11  1  6  0  0  0
  7 16  1  0  0  0  0
 16 10  1  0  0  0  0
 10 12  1  0  0  0  0
 12 13  1  0  0  0  0
 13 14  2  0  0  0  0
 13 15  1  0  0  0  0
 17 18  1  0  0  0  0
M  CHG  2  13   1  15  -1
M  END
> <ID>
CHEBI:6951

> <NAME>
miserotoxin

$$$$

Marvin  08140717232D          

  8  8  0  0  0  0            999 V2000
    0.4125    0.0000    0.0000 S   0  0  0  0  0  0  0  0  0  0  0  0
   -0.4125    0.0000    0.0000 S   0  0  0  0  0  0  0  0  0  0  0  0
   -0.6674    0.7846    0.0000 C   0  0  0  0  0  0  0  0  0  0  0  0
    0.0000    1.2695    0.0000 C   0  0  3  0  0  0  0  0  0  0  0  0
    0.6674    0.7846    0.0000 C   0  0  0  0  0  0  0  0  0  0  0  0
    0.0000    2.0945    0.0000 N   0  0  0  0  0  0  0  0  0  0  0  0
    0.7145    2.5070    0.0000 C   0  0  0  0  0  0  0  0  0  0  0  0
   -0.7145    2.5070    0.0000 C   0  0  0  0  0  0  0  0  0  0  0  0
  5  1  1  0  0  0  0
  1  2  1  0  0  0  0
  2  3  1  0  0  0  0
  3  4  1  0  0  0  0
  4  5  1  0  0  0  0
  4  6  1  0  0  0  0
  6  7  1  0  0  0  0
  6  8  1  0  0  0  0
M  END
> <ID>
CHEBI:7521

> <NAME>
nereistoxin

$$$$

Marvin  02101116402D          

 16 17  0  0  1  0            999 V2000
    6.6087   -5.0842    0.0000 C   0  0  0  0  0  0  0  0  0  0  0  0
    6.6087   -5.9092    0.0000 C   0  0  0  0  0  0  0  0  0  0  0  0
    5.8942   -4.6717    0.0000 C   0  0  0  0  0  0  0  0  0  0  0  0
    5.8942   -6.3217    0.0000 C   0  0  2  0  0  0  0  0  0  0  0  0
    5.1798   -5.0842    0.0000 C   0  0  0  0  0  0  0  0  0  0  0  0
    5.1798   -5.9092    0.0000 C   0  0  1  0  0  0  0  0  0  0  0  0
    5.2263   -6.8060    0.0000 C   0  0  0  0  0  0  0  0  0  0  0  0
    5.4806   -7.5909    0.0000 C   0  0  1  0  0  0  0  0  0  0  0  0
    6.5612   -6.8072    0.0000 C   0  0  0  0  0  0  0  0  0  0  0  0
    6.3057   -7.5916    0.0000 C   0  0  0  0  0  0  0  0  0  0  0  0
    4.9952   -8.2579    0.0000 C   0  0  0  0  0  0  0  0  0  0  0  0
    4.1747   -8.1710    0.0000 C   0  0  0  0  0  0  0  0  0  0  0  0
    5.3301   -9.0119    0.0000 C   0  0  0  0  0  0  0  0  0  0  0  0
    7.3232   -6.3217    0.0000 C   0  0  0  0  0  0  0  0  0  0  0  0
    4.4653   -6.3217    0.0000 C   0  0  0  0  0  0  0  0  0  0  0  0
    5.8942   -3.8467    0.0000 O   0  0  0  0  0  0  0  0  0  0  0  0
  2  1  2  0  0  0  0
  3  1  1  0  0  0  0
  4  2  1  0  0  0  0
  5  3  1  0  0  0  0
  6  4  1  0  0  0  0
  6  5  1  0  0  0  0
  4  7  1  1  0  0  0
  8  7  1  0  0  0  0
  4  9  1  6  0  0  0
 10  8  1  0  0  0  0
 10  9  1  0  0  0  0
  8 11  1  1  0  0  0
 11 12  1  0  0  0  0
 11 13  2  0  0  0  0
  2 14  1  0  0  0  0
  6 15  1  6  0  0  0
  3 16  2  0  0  0  0
M  END
> <ID>
CHEBI:9192

> <NAME>
solavetivone

$$$$

Marvin  11270717332D          

 26 28  0  0  0  0            999 V2000
    6.7203   -5.0030    0.0000 C   0  0  0  0  0  0  0  0  0  0  0  0
    6.7203   -4.1780    0.0000 C   0  0  0  0  0  0  0  0  0  0  0  0
    5.2913   -5.0030    0.0000 C   0  0  0  0  0  0  0  0  0  0  0  0
    6.0058   -3.7655    0.0000 C   0  0  0  0  0  0  0  0  0  0  0  0
    7.4347   -3.7656    0.0000 C   0  0  0  0  0  0  0  0  0  0  0  0
    6.9977   -6.3087    0.0000 C   0  0  0  0  0  0  0  0  0  0  0  0
    5.2913   -4.1780    0.0000 C   0  0  0  0  0  0  0  0  0  0  0  0
    6.0058   -5.4155    0.0000 C   0  0  0  0  0  0  0  0  0  0  0  0
    6.1772   -6.2225    0.0000 N   0  0  0  0  0  0  0  0  0  0  0  0
    8.1492   -4.1781    0.0000 C   0  0  0  0  0  0  0  0  0  0  0  0
    8.8636   -2.9406    0.0000 C   0  0  0  0  0  0  0  0  0  0  0  0
    8.8636   -3.7656    0.0000 C   0  0  0  0  0  0  0  0  0  0  0  0
    9.5781   -4.1781    0.0000 C   0  0  0  0  0  0  0  0  0  0  0  0
    7.3333   -5.5551    0.0000 C   0  0  0  0  0  0  0  0  0  0  0  0
    8.1302   -5.3415    0.0000 C   0  0  0  0  0  0  0  0  0  0  0  0
    8.8446   -5.7540    0.0000 C   0  0  1  0  0  0  0  0  0  0  0  0
    9.3296   -6.4214    0.0000 C   0  0  0  0  0  0  0  0  0  0  0  0
    9.3296   -5.0866    0.0000 N   0  0  0  0  0  0  0  0  0  0  0  0
   10.1142   -6.1665    0.0000 C   0  0  0  0  0  0  0  0  0  0  0  0
   10.1142   -5.3415    0.0000 C   0  0  0  0  0  0  0  0  0  0  0  0
   10.7817   -4.8568    0.0000 O   0  0  0  0  0  0  0  0  0  0  0  0
    9.0744   -7.2061    0.0000 O   0  0  0  0  0  0  0  0  0  0  0  0
   10.7815   -6.6516    0.0000 C   0  0  0  0  0  0  0  0  0  0  0  0
   10.6952   -7.4721    0.0000 C   0  0  0  0  0  0  0  0  0  0  0  0
   11.5352   -6.3161    0.0000 O   0  0  0  0  0  0  0  0  0  0  0  0
    8.4321   -6.4685    0.0000 H   0  0  0  0  0  0  0  0  0  0  0  0
  1  2  2  0  0  0  0
  1 14  1  0  0  0  0
  1  8  1  0  0  0  0
  2  4  1  0  0  0  0
  2  5  1  0  0  0  0
  8  3  2  0  0  0  0
  3  7  1  0  0  0  0
  4  7  2  0  0  0  0
 10  5  1  0  0  0  0
 14  6  2  0  0  0  0
  9  6  1  0  0  0  0
  8  9  1  0  0  0  0
 10 12  2  0  0  0  0
 12 11  1  0  0  0  0
 12 13  1  0  0  0  0
 14 15  1  0  0  0  0
 15 16  1  0  0  0  0
 16 17  1  0  0  0  0
 16 18  1  0  0  0  0
 16 26  1  1  0  0  0
 17 22  1  0  0  0  0
 17 19  2  0  0  0  0
 20 18  1  0  0  0  0
 19 23  1  0  0  0  0
 19 20  1  0  0  0  0
 20 21  2  0  0  0  0
 23 24  1  0  0  0  0
 23 25  2  0  0  0  0
M  END
> <ID>
CHEBI:10365

> <NAME>
(5S)-3-acetyl-4-hydroxy-5-{[4-(3-methylbut-2-en-1-yl)-1H-indol-3-yl]methyl}-1,5-dihydro-2H-pyrrol-2-one

$$$$

  Ketcher 04041717022D 1   1.00000     0.00000     0

  0  0  0     0  0            999 V2000
M  END> <ID>
CHEBI:12336

> <NAME>
alpha-cyclopiazonic acids

$$$$

Marvin  04251309382D          

 20 23  0  0  1  0            999 V2000
    0.0000   -1.6500    0.0000 C   0  0  0  0  0  0  0  0  0  0  0  0
    0.7145   -1.2375    0.0000 C   0  0  0  0  0  0  0  0  0  0  0  0
   -0.7145   -1.2375    0.0000 C   0  0  0  0  0  0  0  0  0  0  0  0
    0.1715   -2.4570    0.0000 O   0  0  0  0  0  0  0  0  0  0  0  0
    1.3276   -1.7896    0.0000 C   0  0  0  0  0  0  0  0  0  0  0  0
    0.7145   -0.4125    0.0000 C   0  0  0  0  0  0  0  0  0  0  0  0
   -0.7145   -0.4125    0.0000 C   0  0  0  0  0  0  0  0  0  0  0  0
   -1.4289   -1.6500    0.0000 C   0  0  0  0  0  0  0  0  0  0  0  0
    0.9920   -2.5433    0.0000 C   0  0  0  0  0  0  0  0  0  0  0  0
    2.1481   -1.7033    0.0000 C   0  0  0  0  0  0  0  0  0  0  0  0
    0.0000    0.0000    0.0000 O   0  0  0  0  0  0  0  0  0  0  0  0
   -1.4289    0.0000    0.0000 C   0  0  0  0  0  0  0  0  0  0  0  0
   -2.1434   -1.2375    0.0000 C   0  0  0  0  0  0  0  0  0  0  0  0
    1.4769   -3.2107    0.0000 C   0  0  0  0  0  0  0  0  0  0  0  0
    2.6330   -2.3708    0.0000 C   0  0  0  0  0  0  0  0  0  0  0  0
   -2.1434   -0.4125    0.0000 C   0  0  0  0  0  0  0  0  0  0  0  0
    2.2974   -3.1245    0.0000 C   0  0  0  0  0  0  0  0  0  0  0  0
   -2.8579    0.0000    0.0000 O   0  0  0  0  0  0  0  0  0  0  0  0
    2.7823   -3.7919    0.0000 O   0  0  0  0  0  0  0  0  0  0  0  0
    3.6028   -3.7057    0.0000 C   0  0  0  0  0  0  0  0  0  0  0  0
  1  2  1  0  0  0  0
  1  3  1  0  0  0  0
  1  4  1  0  0  0  0
  2  5  1  0  0  0  0
  2  6  1  0  0  0  0
  3  7  2  0  0  0  0
  3  8  1  0  0  0  0
  4  9  1  0  0  0  0
  5 10  2  0  0  0  0
  6 11  1  0  0  0  0
  7 12  1  0  0  0  0
  8 13  2  0  0  0  0
  9 14  2  0  0  0  0
 10 15  1  0  0  0  0
 12 16  2  0  0  0  0
 14 17  1  0  0  0  0
 16 18  1  0  0  0  0
 17 19  1  0  0  0  0
 19 20  1  0  0  0  0
  5  9  1  0  0  0  0
  7 11  1  0  0  0  0
 13 16  1  0  0  0  0
 15 17  2  0  0  0  0
M  END
> <ID>
CHEBI:16114

> <NAME>
medicarpin

$$$$

Marvin  11270717442D          

 26 28  0  0  0  0            999 V2000
    6.7203   -5.0030    0.0000 C   0  0  0  0  0  0  0  0  0  0  0  0
    6.7203   -4.1780    0.0000 C   0  0  0  0  0  0  0  0  0  0  0  0
    5.2913   -5.0030    0.0000 C   0  0  0  0  0  0  0  0  0  0  0  0
    6.0058   -3.7655    0.0000 C   0  0  0  0  0  0  0  0  0  0  0  0
    7.4347   -3.7656    0.0000 C   0  0  0  0  0  0  0  0  0  0  0  0
    6.9977   -6.3087    0.0000 C   0  0  0  0  0  0  0  0  0  0  0  0
    5.2913   -4.1780    0.0000 C   0  0  0  0  0  0  0  0  0  0  0  0
    6.0058   -5.4155    0.0000 C   0  0  0  0  0  0  0  0  0  0  0  0
    6.1772   -6.2225    0.0000 N   0  0  0  0  0  0  0  0  0  0  0  0
    8.1492   -4.1781    0.0000 C   0  0  0  0  0  0  0  0  0  0  0  0
    8.8636   -2.9406    0.0000 C   0  0  0  0  0  0  0  0  0  0  0  0
    8.8636   -3.7656    0.0000 C   0  0  0  0  0  0  0  0  0  0  0  0
    9.5781   -4.1781    0.0000 C   0  0  0  0  0  0  0  0  0  0  0  0
    7.3333   -5.5551    0.0000 C   0  0  0  0  0  0  0  0  0  0  0  0
    8.1302   -5.3415    0.0000 C   0  0  0  0  0  0  0  0  0  0  0  0
    8.8446   -5.7540    0.0000 C   0  0  1  0  0  0  0  0  0  0  0  0
    9.3296   -6.4214    0.0000 C   0  0  0  0  0  0  0  0  0  0  0  0
    9.3296   -5.0866    0.0000 N   0  0  0  0  0  0  0  0  0  0  0  0
   10.1142   -6.1665    0.0000 C   0  0  0  0  0  0  0  0  0  0  0  0
   10.1142   -5.3415    0.0000 C   0  0  0  0  0  0  0  0  0  0  0  0
   10.7817   -4.8568    0.0000 O   0  0  0  0  0  0  0  0  0  0  0  0
    9.0744   -7.2061    0.0000 O   0  0  0  0  0  0  0  0  0  0  0  0
   10.7815   -6.6516    0.0000 C   0  0  0  0  0  0  0  0  0  0  0  0
   10.6952   -7.4721    0.0000 C   0  0  0  0  0  0  0  0  0  0  0  0
   11.5352   -6.3161    0.0000 O   0  0  0  0  0  0  0  0  0  0  0  0
    8.4321   -6.4685    0.0000 H   0  0  0  0  0  0  0  0  0  0  0  0
  1  2  2  0  0  0  0
  1 14  1  0  0  0  0
  1  8  1  0  0  0  0
  2  4  1  0  0  0  0
  2  5  1  0  0  0  0
  8  3  2  0  0  0  0
  3  7  1  0  0  0  0
  4  7  2  0  0  0  0
 10  5  1  0  0  0  0
 14  6  2  0  0  0  0
  9  6  1  0  0  0  0
  8  9  1  0  0  0  0
 10 12  2  0  0  0  0
 12 11  1  0  0  0  0
 12 13  1  0  0  0  0
 14 15  1  0  0  0  0
 15 16  1  0  0  0  0
 16 17  1  0  0  0  0
 16 18  1  0  0  0  0
 16 26  1  1  0  0  0
 17 22  2  0  0  0  0
 17 19  1  0  0  0  0
 20 18  1  0  0  0  0
 19 23  2  0  0  0  0
 19 20  1  0  0  0  0
 20 21  2  0  0  0  0
 23 24  1  0  0  0  0
 23 25  1  0  0  0  0
M  END
> <ID>
CHEBI:17233

> <NAME>
(3Z,5S)-3-(1-hydroxyethylidene)-5-{[4-(3-methylbut-2-en-1-yl)-1H-indol-3-yl]methyl}pyrrolidine-2,4-dione

$$$$
ChEBI


 27 30  0  0  1  0  0  0  0  0  1 V2000
    9.3863   -6.3356    0.0000 C   0  0  0  0  0  0  0  0  0  0  0  0
    9.3897   -5.5321    0.0000 C   0  0  0  0  0  0  0  0  0  0  0  0
   10.0897   -6.7390    0.0000 C   0  0  0  0  0  0  0  0  0  0  0  0
    8.6966   -6.7425    0.0000 O   0  0  0  0  0  0  0  0  0  0  0  0
    8.0001   -5.5321    0.0000 C   0  0  0  0  0  0  0  0  0  0  0  0
   10.0932   -5.1356    0.0000 C   0  0  0  0  0  0  0  0  0  0  0  0
   10.7863   -6.3356    0.0000 C   0  0  0  0  0  0  0  0  0  0  0  0
   10.0897   -7.5425    0.0000 C   0  0  0  0  0  0  0  0  0  0  0  0
    7.9966   -6.3321    0.0000 C   0  0  0  0  0  0  0  0  0  0  0  0
    7.3035   -5.1252    0.0000 C   0  0  0  0  0  0  0  0  0  0  0  0
   10.7863   -5.5253    0.0000 O   0  0  0  0  0  0  0  0  0  0  0  0
   11.4828   -6.7356    0.0000 C   0  0  0  0  0  0  0  0  0  0  0  0
   10.7897   -7.9459    0.0000 C   0  0  0  0  0  0  0  0  0  0  0  0
    7.2966   -6.7321    0.0000 C   0  0  0  0  0  0  0  0  0  0  0  0
    6.6104   -5.5218    0.0000 C   0  0  0  0  0  0  0  0  0  0  0  0
   11.4828   -7.5425    0.0000 C   0  0  0  0  0  0  0  0  0  0  0  0
    6.6070   -6.3253    0.0000 C   0  0  0  0  0  0  0  0  0  0  0  0
    7.2932   -7.5390    0.0000 C   0  0  0  0  0  0  0  0  0  0  0  0
   12.1863   -7.9459    0.0000 O   0  0  0  0  0  0  0  0  0  0  0  0
    5.9001   -6.7253    0.0000 O   0  0  0  0  0  0  0  0  0  0  0  0
    7.9897   -7.9425    0.0000 C   0  0  0  0  0  0  0  0  0  0  0  0
    7.9932   -8.7494    0.0000 C   0  0  0  0  0  0  0  0  0  0  0  0
    7.2897   -9.1528    0.0000 C   0  0  0  0  0  0  0  0  0  0  0  0
    8.6932   -9.1528    0.0000 C   0  0  0  0  0  0  0  0  0  0  0  0
    8.7035   -8.3287    0.0000 O   0  0  0  0  0  0  0  0  0  0  0  0
    9.3828   -7.1459    0.0000 H   0  0  0  0  0  0  0  0  0  0  0  0
    9.3828   -4.7218    0.0000 H   0  0  0  0  0  0  0  0  0  0  0  0
  1  2  1  0  0  0  0
  1  3  1  0  0  0  0
  1  4  1  0  0  0  0
  2  5  1  0  0  0  0
  2  6  1  0  0  0  0
  3  7  2  0  0  0  0
  3  8  1  0  0  0  0
  4  9  1  0  0  0  0
  5 10  1  0  0  0  0
  6 11  1  0  0  0  0
  7 12  1  0  0  0  0
  8 13  2  0  0  0  0
  9 14  1  0  0  0  0
 10 15  2  0  0  0  0
 12 16  2  0  0  0  0
 14 17  2  0  0  0  0
 14 18  1  0  0  0  0
 16 19  1  0  0  0  0
 17 20  1  0  0  0  0
 18 21  1  0  0  0  0
 21 22  1  0  0  0  0
 22 23  1  0  0  0  0
 22 24  1  0  0  0  0
 22 25  1  0  0  0  0
  5  9  2  0  0  0  0
  7 11  1  0  0  0  0
 13 16  1  0  0  0  0
 15 17  1  0  0  0  0
  1 26  1  1  0  0  0
  2 27  1  1  0  0  0
M  END
> <ID>
CHEBI:17465

> <NAME>
phaseollidin hydrate

$$$$

Marvin  11270716512D          

 28 32  0  0  0  0            999 V2000
   -0.2169   -0.6674    0.0000 C   0  0  0  0  0  0  0  0  0  0  0  0
   -0.7018    0.0000    0.0000 C   0  0  1  0  0  0  0  0  0  0  0  0
   -0.2169    0.6674    0.0000 N   0  0  0  0  0  0  0  0  0  0  0  0
    0.5678   -0.4125    0.0000 C   0  0  0  0  0  0  0  0  0  0  0  0
    0.5678    0.4125    0.0000 C   0  0  0  0  0  0  0  0  0  0  0  0
   -2.8974    0.2672    0.0000 C   0  0  0  0  0  0  0  0  0  0  0  0
   -2.9257    1.0732    0.0000 C   0  0  0  0  0  0  0  0  0  0  0  0
   -4.2930    0.1536    0.0000 C   0  0  0  0  0  0  0  0  0  0  0  0
   -3.6672    1.4362    0.0000 C   0  0  0  0  0  0  0  0  0  0  0  0
   -2.2154    1.4844    0.0000 C   0  0  0  0  0  0  0  0  0  0  0  0
   -2.4462   -0.9582    0.0000 C   0  0  0  0  0  0  0  0  0  0  0  0
   -4.3525    0.9769    0.0000 C   0  0  0  0  0  0  0  0  0  0  0  0
   -2.2157   -0.1614    0.0000 C   0  0  0  0  0  0  0  0  0  0  0  0
   -0.6981    1.3329    0.0000 C   0  0  3  0  0  0  0  0  0  0  0  0
    1.2352    0.8841    0.0000 O   0  0  0  0  0  0  0  0  0  0  0  0
   -0.4667   -1.4519    0.0000 O   0  0  0  0  0  0  0  0  0  0  0  0
    1.2220   -0.9096    0.0000 C   0  0  0  0  0  0  0  0  0  0  0  0
    1.1437   -1.7287    0.0000 C   0  0  0  0  0  0  0  0  0  0  0  0
    1.9754   -0.5785    0.0000 O   0  0  0  0  0  0  0  0  0  0  0  0
   -0.0166    1.8030    0.0000 C   0  0  0  0  0  0  0  0  0  0  0  0
   -0.7536    2.1585    0.0000 C   0  0  0  0  0  0  0  0  0  0  0  0
   -3.5510   -0.2074    0.0000 C   0  0  0  0  0  0  0  0  0  0  0  0
   -3.2713   -0.9849    0.0000 N   0  0  0  0  0  0  0  0  0  0  0  0
   -1.4896    1.0768    0.0000 C   0  0  1  0  0  0  0  0  0  0  0  0
   -1.4882    1.8991    0.0000 H   0  0  0  0  0  0  0  0  0  0  0  0
   -1.4909    0.2528    0.0000 C   0  0  1  0  0  0  0  0  0  0  0  0
   -1.4922   -0.5695    0.0000 H   0  0  0  0  0  0  0  0  0  0  0  0
   -1.1143   -0.7112    0.0000 H   0  0  0  0  0  0  0  0  0  0  0  0
  1 16  2  0  0  0  0
  2  1  1  0  0  0  0
 26  2  1  0  0  0  0
  2 28  1  1  0  0  0
  3  2  1  0  0  0  0
  3 14  1  0  0  0  0
  1  4  1  0  0  0  0
  4 17  2  0  0  0  0
  5  3  1  0  0  0  0
  4  5  1  0  0  0  0
  5 15  2  0  0  0  0
  6  7  2  0  0  0  0
  6 13  1  0  0  0  0
  6 22  1  0  0  0  0
  7  9  1  0  0  0  0
  7 10  1  0  0  0  0
 22  8  2  0  0  0  0
  8 12  1  0  0  0  0
  9 12  2  0  0  0  0
 24 10  1  0  0  0  0
 13 11  2  0  0  0  0
 23 11  1  0  0  0  0
 26 13  1  0  0  0  0
 24 14  1  0  0  0  0
 14 20  1  0  0  0  0
 14 21  1  0  0  0  0
 17 18  1  0  0  0  0
 17 19  1  0  0  0  0
 22 23  1  0  0  0  0
 26 24  1  0  0  0  0
 24 25  1  6  0  0  0
 26 27  1  6  0  0  0
M  END
> <ID>
CHEBI:17734

> <NAME>
alpha-cyclopiazonic acid

$$$$

Marvin  03120621132D          

 27 31  0  0  1  0            999 V2000
    0.9089   -0.4093    0.0000 C   0  0  0  0  0  0  0  0  0  0  0  0
    0.1945    0.0032    0.0000 C   0  0  0  0  0  0  0  0  0  0  0  0
    0.9089   -1.2343    0.0000 C   0  0  0  0  0  0  0  0  0  0  0  0
    1.6936   -0.1544    0.0000 C   0  0  1  0  0  0  0  0  0  0  0  0
   -0.5200   -0.4093    0.0000 C   0  0  0  0  0  0  0  0  0  0  0  0
    0.1945    0.8282    0.0000 O   0  0  0  0  0  0  0  0  0  0  0  0
    0.1945   -1.6468    0.0000 C   0  0  0  0  0  0  0  0  0  0  0  0
    1.6936   -1.4892    0.0000 O   0  0  0  0  0  0  0  0  0  0  0  0
    2.1785   -0.8218    0.0000 C   0  0  1  0  0  0  0  0  0  0  0  0
    2.1785    0.5131    0.0000 C   0  0  0  0  0  0  0  0  0  0  0  0
   -0.5200   -1.2343    0.0000 C   0  0  0  0  0  0  0  0  0  0  0  0
   -1.2345    0.0032    0.0000 C   0  0  0  0  0  0  0  0  0  0  0  0
   -0.5200    1.2407    0.0000 C   0  0  0  0  0  0  0  0  0  0  0  0
    2.9631   -0.5669    0.0000 O   0  0  0  0  0  0  0  0  0  0  0  0
    2.9631    0.2581    0.0000 C   0  0  0  0  0  0  0  0  0  0  0  0
   -1.2345    0.8282    0.0000 C   0  0  0  0  0  0  0  0  0  0  0  0
   -1.9489   -0.4093    0.0000 O   0  0  0  0  0  0  0  0  0  0  0  0
   -0.5200    2.0657    0.0000 C   0  0  0  0  0  0  0  0  0  0  0  0
   -1.9489    1.2407    0.0000 C   0  0  0  0  0  0  0  0  0  0  0  0
   -1.2345    2.4782    0.0000 C   0  0  0  0  0  0  0  0  0  0  0  0
   -1.9489    2.0657    0.0000 C   0  0  0  0  0  0  0  0  0  0  0  0
    1.2086    0.5131    0.0000 H   0  0  0  0  0  0  0  0  0  0  0  0
    2.6634   -1.4892    0.0000 H   0  0  0  0  0  0  0  0  0  0  0  0
   -2.6634    0.8282    0.0000 O   0  0  0  0  0  0  0  0  0  0  0  0
   -3.3779    1.2407    0.0000 C   0  0  0  0  0  0  0  0  0  0  0  0
   -1.2345   -1.6468    0.0000 O   0  0  0  0  0  0  0  0  0  0  0  0
   -1.2345   -2.4718    0.0000 C   0  0  0  0  0  0  0  0  0  0  0  0
  1  2  1  0  0  0  0
  1  3  2  0  0  0  0
  1  4  1  0  0  0  0
  2  5  2  0  0  0  0
  2  6  1  0  0  0  0
  3  7  1  0  0  0  0
  3  8  1  0  0  0  0
  4  9  1  0  0  0  0
  4 10  1  0  0  0  0
  5 11  1  0  0  0  0
  5 12  1  0  0  0  0
  6 13  1  0  0  0  0
  9 14  1  0  0  0  0
 10 15  2  0  0  0  0
 11 26  1  0  0  0  0
 12 16  1  0  0  0  0
 12 17  2  0  0  0  0
 13 18  1  0  0  0  0
 16 19  1  0  0  0  0
 18 20  2  0  0  0  0
 19 21  2  0  0  0  0
 19 24  1  0  0  0  0
  7 11  2  0  0  0  0
  8  9  1  0  0  0  0
 13 16  2  0  0  0  0
 14 15  1  0  0  0  0
 20 21  1  0  0  0  0
  4 22  1  1  0  0  0
  9 23  1  1  0  0  0
 24 25  1  0  0  0  0
 26 27  1  0  0  0  0
M  END
> <ID>
CHEBI:18171

> <NAME>
8-O-methylsterigmatocystin

$$$$

Marvin  03120621142D          

 25 29  0  0  1  0            999 V2000
    1.9693    0.4326    0.0000 C   0  0  0  0  0  0  0  0  0  0  0  0
    2.7539    0.1777    0.0000 C   0  0  0  0  0  0  0  0  0  0  0  0
    2.7539   -0.6473    0.0000 O   0  0  0  0  0  0  0  0  0  0  0  0
    1.4843   -1.5697    0.0000 O   0  0  0  0  0  0  0  0  0  0  0  0
   -0.0148   -1.7272    0.0000 C   0  0  0  0  0  0  0  0  0  0  0  0
   -0.7292   -1.3147    0.0000 C   0  0  0  0  0  0  0  0  0  0  0  0
   -1.4437   -0.0772    0.0000 C   0  0  0  0  0  0  0  0  0  0  0  0
   -2.1582    1.1603    0.0000 C   0  0  0  0  0  0  0  0  0  0  0  0
   -2.1582    1.9853    0.0000 C   0  0  0  0  0  0  0  0  0  0  0  0
   -1.4437    2.3978    0.0000 C   0  0  0  0  0  0  0  0  0  0  0  0
   -0.7292    1.9853    0.0000 C   0  0  0  0  0  0  0  0  0  0  0  0
   -0.0148    0.7478    0.0000 O   0  0  0  0  0  0  0  0  0  0  0  0
   -0.0148   -0.0772    0.0000 C   0  0  0  0  0  0  0  0  0  0  0  0
   -0.7292    1.1603    0.0000 C   0  0  0  0  0  0  0  0  0  0  0  0
   -0.7292   -0.4897    0.0000 C   0  0  0  0  0  0  0  0  0  0  0  0
   -1.4437    0.7478    0.0000 C   0  0  0  0  0  0  0  0  0  0  0  0
    0.6997   -0.4897    0.0000 C   0  0  0  0  0  0  0  0  0  0  0  0
    0.6997   -1.3147    0.0000 C   0  0  0  0  0  0  0  0  0  0  0  0
   -2.1582   -0.4897    0.0000 O   0  0  0  0  0  0  0  0  0  0  0  0
   -1.4437   -1.7272    0.0000 O   0  0  0  0  0  0  0  0  0  0  0  0
   -2.8726    0.7478    0.0000 O   0  0  0  0  0  0  0  0  0  0  0  0
    1.9693   -0.9022    0.0000 C   0  0  2  0  0  0  0  0  0  0  0  0
    2.4542   -1.5697    0.0000 H   0  0  0  0  0  0  0  0  0  0  0  0
    1.4843   -0.2348    0.0000 C   0  0  1  0  0  0  0  0  0  0  0  0
    0.9994    0.4326    0.0000 H   0  0  0  0  0  0  0  0  0  0  0  0
 13 12  1  0  0  0  0
 14 12  1  0  0  0  0
 15 13  2  0  0  0  0
 17 13  1  0  0  0  0
 16 14  2  0  0  0  0
 11 14  1  0  0  0  0
  7 15  1  0  0  0  0
  6 15  1  0  0  0  0
  7 16  1  0  0  0  0
  8 16  1  0  0  0  0
 19  7  2  0  0  0  0
 10 11  2  0  0  0  0
 18 17  2  0  0  0  0
 24 17  1  0  0  0  0
  5  6  2  0  0  0  0
 20  6  1  0  0  0  0
  9  8  2  0  0  0  0
 21  8  1  0  0  0  0
  9 10  1  0  0  0  0
 18  5  1  0  0  0  0
  4 18  1  0  0  0  0
 22  4  1  0  0  0  0
 24 22  1  0  0  0  0
 22  3  1  0  0  0  0
 24  1  1  0  0  0  0
  2  3  1  0  0  0  0
  1  2  2  0  0  0  0
 22 23  1  1  0  0  0
 24 25  1  1  0  0  0
M  END
> <ID>
CHEBI:18236

> <NAME>
6-demethylsterigmatocystin

$$$$

  Ketcher 04041717022D 1   1.00000     0.00000     0

  0  0  0     0  0            999 V2000
M  END> <ID>
CHEBI:22271

> <NAME>
aflatoxin

$$$$

Marvin  11270718082D          

 28 32  0  0  0  0            999 V2000
   -0.2169   -0.6674    0.0000 C   0  0  0  0  0  0  0  0  0  0  0  0
   -0.7018    0.0000    0.0000 C   0  0  1  0  0  0  0  0  0  0  0  0
   -0.2169    0.6674    0.0000 N   0  0  0  0  0  0  0  0  0  0  0  0
    0.5678   -0.4125    0.0000 C   0  0  0  0  0  0  0  0  0  0  0  0
    0.5678    0.4125    0.0000 C   0  0  0  0  0  0  0  0  0  0  0  0
   -2.8974    0.2672    0.0000 C   0  0  0  0  0  0  0  0  0  0  0  0
   -2.9257    1.0732    0.0000 C   0  0  0  0  0  0  0  0  0  0  0  0
   -4.2930    0.1536    0.0000 C   0  0  0  0  0  0  0  0  0  0  0  0
   -3.6672    1.4362    0.0000 C   0  0  0  0  0  0  0  0  0  0  0  0
   -2.2154    1.4844    0.0000 C   0  0  0  0  0  0  0  0  0  0  0  0
   -2.4462   -0.9582    0.0000 C   0  0  0  0  0  0  0  0  0  0  0  0
   -4.3525    0.9769    0.0000 C   0  0  0  0  0  0  0  0  0  0  0  0
   -2.2157   -0.1614    0.0000 C   0  0  0  0  0  0  0  0  0  0  0  0
   -0.6981    1.3329    0.0000 C   0  0  3  0  0  0  0  0  0  0  0  0
    1.2352    0.8841    0.0000 O   0  0  0  0  0  0  0  0  0  0  0  0
   -0.4667   -1.4519    0.0000 O   0  0  0  0  0  0  0  0  0  0  0  0
    1.2220   -0.9096    0.0000 C   0  0  0  0  0  0  0  0  0  0  0  0
    1.1437   -1.7287    0.0000 C   0  0  0  0  0  0  0  0  0  0  0  0
    1.9754   -0.5785    0.0000 O   0  0  0  0  0  0  0  0  0  0  0  0
   -0.0166    1.8030    0.0000 C   0  0  0  0  0  0  0  0  0  0  0  0
   -0.7536    2.1585    0.0000 C   0  0  0  0  0  0  0  0  0  0  0  0
   -3.5510   -0.2074    0.0000 C   0  0  0  0  0  0  0  0  0  0  0  0
   -3.2713   -0.9849    0.0000 N   0  0  0  0  0  0  0  0  0  0  0  0
   -1.4896    1.0768    0.0000 C   0  0  1  0  0  0  0  0  0  0  0  0
   -1.4882    1.8991    0.0000 H   0  0  0  0  0  0  0  0  0  0  0  0
   -1.4909    0.2528    0.0000 C   0  0  1  0  0  0  0  0  0  0  0  0
   -1.4922   -0.5695    0.0000 H   0  0  0  0  0  0  0  0  0  0  0  0
   -1.1143   -0.7112    0.0000 H   0  0  0  0  0  0  0  0  0  0  0  0
  1 16  1  0  0  0  0
  2  1  1  0  0  0  0
 26  2  1  0  0  0  0
  2 28  1  1  0  0  0
  3  2  1  0  0  0  0
  3 14  1  0  0  0  0
  1  4  2  0  0  0  0
  4 17  1  0  0  0  0
  5  3  1  0  0  0  0
  4  5  1  0  0  0  0
  5 15  2  0  0  0  0
  6  7  2  0  0  0  0
  6 13  1  0  0  0  0
  6 22  1  0  0  0  0
  7  9  1  0  0  0  0
  7 10  1  0  0  0  0
 22  8  2  0  0  0  0
  8 12  1  0  0  0  0
  9 12  2  0  0  0  0
 24 10  1  0  0  0  0
 13 11  2  0  0  0  0
 23 11  1  0  0  0  0
 26 13  1  0  0  0  0
 24 14  1  0  0  0  0
 14 20  1  0  0  0  0
 14 21  1  0  0  0  0
 17 18  1  0  0  0  0
 17 19  2  0  0  0  0
 22 23  1  0  0  0  0
 26 24  1  0  0  0  0
 24 25  1  6  0  0  0
 26 27  1  6  0  0  0
M  END
> <ID>
CHEBI:22450

> <NAME>
(6aR,11aS,11bR)-10-acetyl-11-hydroxy-7,7-dimethyl-2,6,6a,7,11a,11b-hexahydro-9H-pyrrolo[1',2':2,3]isoindolo[4,5,6-cd]indol-9-one

$$$$

  Ketcher 04041717022D 1   1.00000     0.00000     0

  0  0  0     0  0            999 V2000
M  END> <ID>
CHEBI:22838

> <NAME>
beta-cyclopiazonic acid

$$$$

  Ketcher 04041717022D 1   1.00000     0.00000     0

  0  0  0     0  0            999 V2000
M  END> <ID>
CHEBI:24797

> <NAME>
indole phytoalexin

$$$$

Ketcher 09142311412D 1   1.00000     0.00000     0

 13 13  0     0  0            999 V2000
   10.0143   -5.2841    0.0000 C   0  0  0  0  0  0  0  0  0  0  0  0
    9.1479   -5.7831    0.0000 C   0  0  0  0  0  0  0  0  0  0  0  0
    9.1462   -6.7866    0.0000 C   0  0  0  0  0  0  0  0  0  0  0  0
   10.0125   -7.2842    0.0000 C   0  0  0  0  0  0  0  0  0  0  0  0
   10.8789   -6.7851    0.0000 C   0  0  0  0  0  0  0  0  0  0  0  0
   10.8789   -5.7886    0.0000 C   0  0  0  0  0  0  0  0  0  0  0  0
   11.7420   -7.2884    0.0000 O   0  0  0  0  0  0  0  0  0  0  0  0
   10.0134   -4.2849    0.0000 O   0  0  0  0  0  0  0  0  0  0  0  0
    8.2804   -7.2866    0.0000 O   0  0  0  0  0  0  0  0  0  0  0  0
   11.7459   -5.2906    0.0000 C   0  0  0  0  0  0  0  0  0  0  0  0
   12.6131   -5.7919    0.0000 C   0  0  0  0  0  0  0  0  0  0  0  0
   11.7500   -4.2890    0.0000 O   0  0  0  0  0  0  0  0  0  0  0  0
    7.4162   -6.7851    0.0000 C   0  0  0  0  0  0  0  0  0  0  0  0
  5  7  1  0     0  0
  1  2  1  0     0  0
  1  8  1  0     0  0
  2  3  2  0     0  0
  3  9  1  0     0  0
  3  4  1  0     0  0
  6 10  1  0     0  0
  4  5  2  0     0  0
 10 11  1  0     0  0
  5  6  1  0     0  0
 10 12  2  0     0  0
  6  1  2  0     0  0
  9 13  1  0     0  0
M  END
> <ID>
CHEBI:28758

> <NAME>
2',6'-dihydroxy-4'-methoxyacetophenone

$$$$
ChEBI
  Marvin  05161315542D          

 32 34  0  0  1  0            999 V2000
   11.2859  -12.2233    0.0000 C   0  0  2  0  0  0  0  0  0  0  0  0
   10.5714  -11.8110    0.0000 C   0  0  2  0  0  0  0  0  0  0  0  0
    9.8569  -12.2241    0.0000 C   0  0  0  0  0  0  0  0  0  0  0  0
    9.8706  -13.0258    0.0000 C   0  0  2  0  0  0  0  0  0  0  0  0
   10.5851  -13.4380    0.0000 C   0  0  2  0  0  0  0  0  0  0  0  0
   11.2860  -13.0486    0.0000 O   0  0  0  0  0  0  0  0  0  0  0  0
   10.5851  -14.2635    0.0000 O   0  0  0  0  0  0  0  0  0  0  0  0
   11.2996  -14.6757    0.0000 C   0  0  1  0  0  0  0  0  0  0  0  0
   11.2998  -15.5011    0.0000 C   0  0  1  0  0  0  0  0  0  0  0  0
   12.0143  -15.9133    0.0000 C   0  0  2  0  0  0  0  0  0  0  0  0
   12.7151  -15.5240    0.0000 C   0  0  1  0  0  0  0  0  0  0  0  0
   12.7151  -14.6986    0.0000 C   0  0  0  0  0  0  0  0  0  0  0  0
   12.0006  -14.2864    0.0000 C   0  0  2  0  0  0  0  0  0  0  0  0
   12.0005  -11.8101    0.0000 C   0  0  0  0  0  0  0  0  0  0  0  0
    9.1560  -13.4390    0.0000 N   0  0  0  0  0  0  0  0  0  0  0  0
   12.0005  -13.4609    0.0000 N   0  0  0  0  0  0  0  0  0  0  0  0
   13.4297  -15.9363    0.0000 N   0  0  0  0  0  0  0  0  0  0  0  0
   10.5851  -15.9142    0.0000 O   0  0  0  0  0  0  0  0  0  0  0  0
   12.7151  -12.2223    0.0000 N   0  0  0  0  0  0  0  0  0  0  0  0
   11.2964  -17.1453    0.0000 C   0  0  1  0  0  0  0  0  0  0  0  0
   10.6089  -16.7328    0.0000 O   0  0  0  0  0  0  0  0  0  0  0  0
    9.8665  -17.1453    0.0000 C   0  0  1  0  0  0  0  0  0  0  0  0
    9.8665  -17.9703    0.0000 C   0  0  2  0  0  0  0  0  0  0  0  0
   10.5815  -18.3827    0.0000 C   0  0  1  0  0  0  0  0  0  0  0  0
   11.2964  -17.9703    0.0000 C   0  0  1  0  0  0  0  0  0  0  0  0
   10.5714  -10.9856    0.0000 O   0  0  0  0  0  0  0  0  0  0  0  0
    9.1790  -16.7053    0.0000 C   0  0  0  0  0  0  0  0  0  0  0  0
    8.4366  -17.1178    0.0000 O   0  0  0  0  0  0  0  0  0  0  0  0
    9.1515  -18.3552    0.0000 O   0  0  0  0  0  0  0  0  0  0  0  0
   10.5815  -19.2077    0.0000 N   0  0  0  0  0  0  0  0  0  0  0  0
   12.0114  -18.3827    0.0000 O   0  0  0  0  0  0  0  0  0  0  0  0
   12.0143  -16.7388    0.0000 O   0  0  0  0  0  0  0  0  0  0  0  0
 25 20  1  0  0  0  0
 11 12  1  0  0  0  0
 12 13  1  0  0  0  0
 13  8  1  0  0  0  0
  6  1  1  0  0  0  0
 10 32  1  6  0  0  0
  1 14  1  1  0  0  0
  5  7  1  6  0  0  0
  4 15  1  6  0  0  0
 13 16  1  1  0  0  0
  8  7  1  6  0  0  0
  2 26  1  6  0  0  0
 11 17  1  1  0  0  0
  1  2  1  0  0  0  0
  9 18  1  1  0  0  0
  2  3  1  0  0  0  0
 14 19  1  0  0  0  0
  3  4  1  0  0  0  0
 22 27  1  1  0  0  0
 27 28  1  0  0  0  0
 23 29  1  6  0  0  0
  4  5  1  0  0  0  0
 24 30  1  1  0  0  0
  5  6  1  0  0  0  0
 25 31  1  6  0  0  0
  8  9  1  0  0  0  0
  9 10  1  0  0  0  0
 10 11  1  0  0  0  0
 20 21  1  0  0  0  0
 21 22  1  0  0  0  0
 22 23  1  0  0  0  0
 23 24  1  0  0  0  0
 24 25  1  0  0  0  0
 20 32  1  6  0  0  0
M  END
> <ID>
CHEBI:28864

> <NAME>
tobramycin

$$$$

Marvin  09080610572D          

101113  0  0  1  0            999 V2000
   12.3233   -8.8464    0.0000 C   0  0  1  0  0  0  0  0  0  0  0  0
   13.1015   -9.1204    0.0000 C   0  0  0  0  0  0  0  0  0  0  0  0
   13.8642   -8.9502    0.0000 C   0  0  0  0  0  0  0  0  0  0  0  0
   12.6243   -7.0782    0.0000 C   0  0  2  0  0  0  0  0  0  0  0  0
   14.2831   -8.2906    0.0000 C   0  0  0  0  0  0  0  0  0  0  0  0
   13.4985   -6.9965    0.0000 C   0  0  2  0  0  0  0  0  0  0  0  0
   14.1131   -7.5279    0.0000 C   0  0  0  0  0  0  0  0  0  0  0  0
   12.1456   -7.4398    0.0000 O   0  0  0  0  0  0  0  0  0  0  0  0
   11.1267   -9.5887    0.0000 C   0  0  1  0  0  0  0  0  0  0  0  0
   10.5774   -9.0329    0.0000 C   0  0  1  0  0  0  0  0  0  0  0  0
   11.9037   -9.5057    0.0000 O   0  0  0  0  0  0  0  0  0  0  0  0
   10.6694   -8.2569    0.0000 C   0  0  0  0  0  0  0  0  0  0  0  0
   12.0696   -8.1073    0.0000 C   0  0  1  0  0  0  0  0  0  0  0  0
   11.3335   -7.8449    0.0000 C   0  0  0  0  0  0  0  0  0  0  0  0
    9.6372  -10.5159    0.0000 C   0  0  2  0  0  0  0  0  0  0  0  0
   10.3739  -10.7768    0.0000 C   0  0  0  0  0  0  0  0  0  0  0  0
    9.3821   -9.7773    0.0000 C   0  0  1  0  0  0  0  0  0  0  0  0
   11.0372  -10.3638    0.0000 C   0  0  0  0  0  0  0  0  0  0  0  0
    9.8005   -9.1173    0.0000 O   0  0  0  0  0  0  0  0  0  0  0  0
    9.1252  -11.1061    0.0000 O   0  0  0  0  0  0  0  0  0  0  0  0
    8.3580  -10.9577    0.0000 C   0  0  2  0  0  0  0  0  0  0  0  0
    8.6149   -9.6289    0.0000 C   0  0  0  0  0  0  0  0  0  0  0  0
    8.1029  -10.2191    0.0000 C   0  0  1  0  0  0  0  0  0  0  0  0
    7.8459  -11.5478    0.0000 C   0  0  1  0  0  0  0  0  0  0  0  0
    7.0787  -11.3994    0.0000 C   0  0  2  0  0  0  0  0  0  0  0  0
    7.3358  -10.0708    0.0000 O   0  0  0  0  0  0  0  0  0  0  0  0
    6.8237  -10.6609    0.0000 C   0  0  1  0  0  0  0  0  0  0  0  0
    5.9181  -12.0851    0.0000 C   0  0  1  0  0  0  0  0  0  0  0  0
    5.3329  -11.5858    0.0000 C   0  0  0  0  0  0  0  0  0  0  0  0
    6.6592  -12.0587    0.0000 O   0  0  0  0  0  0  0  0  0  0  0  0
    5.4249  -10.8098    0.0000 C   0  0  0  0  0  0  0  0  0  0  0  0
    6.0889  -10.3979    0.0000 C   0  0  0  0  0  0  0  0  0  0  0  0
   12.0155   -6.4457    0.0000 C   0  0  0  0  0  0  0  0  0  0  0  0
   12.1302   -5.5754    0.0000 C   0  0  2  0  0  0  0  0  0  0  0  0
   13.9794   -6.2620    0.0000 O   0  0  0  0  0  0  0  0  0  0  0  0
   13.7053   -5.4280    0.0000 C   0  0  1  0  0  0  0  0  0  0  0  0
   12.8823   -5.1224    0.0000 C   0  0  1  0  0  0  0  0  0  0  0  0
   14.3814   -4.8680    0.0000 C   0  0  0  0  0  0  0  0  0  0  0  0
   14.2345   -4.0025    0.0000 C   0  0  1  0  0  0  0  0  0  0  0  0
   12.7354   -4.2569    0.0000 O   0  0  0  0  0  0  0  0  0  0  0  0
   13.4115   -3.6969    0.0000 C   0  0  2  0  0  0  0  0  0  0  0  0
   15.0325   -3.6366    0.0000 O   0  0  0  0  0  0  0  0  0  0  0  0
   13.0457   -2.8990    0.0000 C   0  0  0  0  0  0  0  0  0  0  0  0
   15.3380   -2.8136    0.0000 C   0  0  1  0  0  0  0  0  0  0  0  0
   13.3512   -2.0760    0.0000 C   0  0  1  0  0  0  0  0  0  0  0  0
   14.9721   -2.0156    0.0000 C   0  0  2  0  0  0  0  0  0  0  0  0
   14.1491   -1.7101    0.0000 C   0  0  0  0  0  0  0  0  0  0  0  0
   16.2120   -2.8957    0.0000 C   0  0  0  0  0  0  0  0  0  0  0  0
   16.7201   -2.1798    0.0000 C   0  0  1  0  0  0  0  0  0  0  0  0
   15.4802   -1.2998    0.0000 O   0  0  0  0  0  0  0  0  0  0  0  0
   16.3542   -1.3818    0.0000 C   0  0  2  0  0  0  0  0  0  0  0  0
   17.5722   -2.3911    0.0000 O   0  0  0  0  0  0  0  0  0  0  0  0
   18.2687   -1.8568    0.0000 C   0  0  1  0  0  0  0  0  0  0  0  0
   16.7500   -0.5983    0.0000 C   0  0  2  0  0  0  0  0  0  0  0  0
   17.6094   -0.4190    0.0000 C   0  0  1  0  0  0  0  0  0  0  0  0
   18.2853   -0.9792    0.0000 C   0  0  2  0  0  0  0  0  0  0  0  0
   19.0205   -2.3100    0.0000 C   0  0  2  0  0  0  0  0  0  0  0  0
   19.7889   -1.8854    0.0000 C   0  0  1  0  0  0  0  0  0  0  0  0
   19.0536   -0.5547    0.0000 O   0  0  0  0  0  0  0  0  0  0  0  0
   19.8054   -1.0078    0.0000 C   0  0  1  0  0  0  0  0  0  0  0  0
   19.7573   -0.2279    0.0000 O   0  0  0  0  0  0  0  0  0  0  0  0
   20.5620   -1.2031    0.0000 C   0  0  0  0  0  0  0  0  0  0  0  0
   20.4843    0.0589    0.0000 C   0  0  0  0  0  0  0  0  0  0  0  0
   20.9817   -0.5438    0.0000 C   0  0  1  0  0  0  0  0  0  0  0  0
    5.6609  -12.8230    0.0000 C   0  0  0  0  0  0  0  0  0  0  0  0
    4.8933  -12.9693    0.0000 C   0  0  0  0  0  0  0  0  0  0  0  0
    4.6362  -13.7071    0.0000 C   0  0  1  0  0  0  0  0  0  0  0  0
    3.8685  -13.8534    0.0000 C   0  0  0  0  0  0  0  0  0  0  0  0
    3.6114  -14.5913    0.0000 O   0  0  0  0  0  0  0  0  0  0  0  0
    5.0488  -14.2260    0.0000 O   0  0  0  0  0  0  0  0  0  0  0  0
    6.3987  -12.7117    0.0000 H   0  0  0  0  0  0  0  0  0  0  0  0
    7.4799  -12.2171    0.0000 H   0  0  0  0  0  0  0  0  0  0  0  0
    8.6707  -11.7304    0.0000 H   0  0  0  0  0  0  0  0  0  0  0  0
   10.0455  -11.3429    0.0000 H   0  0  0  0  0  0  0  0  0  0  0  0
   11.8175  -10.3436    0.0000 H   0  0  0  0  0  0  0  0  0  0  0  0
   12.6942   -9.6574    0.0000 H   0  0  0  0  0  0  0  0  0  0  0  0
   14.4380   -6.9122    0.0000 H   0  0  0  0  0  0  0  0  0  0  0  0
   14.5185   -5.6055    0.0000 H   0  0  0  0  0  0  0  0  0  0  0  0
   15.0769   -4.3379    0.0000 H   0  0  0  0  0  0  0  0  0  0  0  0
   15.8383   -3.6666    0.0000 H   0  0  0  0  0  0  0  0  0  0  0  0
   17.0462   -3.1114    0.0000 H   0  0  0  0  0  0  0  0  0  0  0  0
   12.7463   -1.4557    0.0000 C   0  0  0  0  0  0  0  0  0  0  0  0
    8.1466  -12.3056    0.0000 O   0  0  0  0  0  0  0  0  0  0  0  0
   19.1593   -3.1576    0.0000 C   0  0  0  0  0  0  0  0  0  0  0  0
   17.8150    0.4030    0.0000 O   0  0  0  0  0  0  0  0  0  0  0  0
    6.4888   -9.8771    0.0000 H   0  0  0  0  0  0  0  0  0  0  0  0
    7.8161   -9.3977    0.0000 H   0  0  0  0  0  0  0  0  0  0  0  0
    9.1306   -8.7162    0.0000 H   0  0  0  0  0  0  0  0  0  0  0  0
    9.8810   -8.4788    0.0000 H   0  0  0  0  0  0  0  0  0  0  0  0
   11.5199   -7.3421    0.0000 H   0  0  0  0  0  0  0  0  0  0  0  0
   11.8330   -6.9326    0.0000 H   0  0  0  0  0  0  0  0  0  0  0  0
   12.4476   -3.3555    0.0000 H   0  0  0  0  0  0  0  0  0  0  0  0
   14.7220   -1.0796    0.0000 H   0  0  0  0  0  0  0  0  0  0  0  0
   15.8592   -0.5941    0.0000 H   0  0  0  0  0  0  0  0  0  0  0  0
   18.3863   -0.1274    0.0000 H   0  0  0  0  0  0  0  0  0  0  0  0
   16.1976    0.1608    0.0000 C   0  0  0  0  0  0  0  0  0  0  0  0
   20.4285   -2.2005    0.0000 C   0  0  0  0  0  0  0  0  0  0  0  0
   21.6456   -0.3815    0.0000 O   0  0  0  0  0  0  0  0  0  0  0  0
   11.3434   -5.0523    0.0000 O   0  0  0  0  0  0  0  0  0  0  0  0
   12.0743   -4.7760    0.0000 C   0  0  0  0  0  0  0  0  0  0  0  0
   18.2417   -2.7423    0.0000 H   0  0  0  0  0  0  0  0  0  0  0  0
  2  1  1  0  0  0  0
  3  2  1  0  0  0  0
  5  3  2  0  0  0  0
  7  5  1  0  0  0  0
  7  6  1  0  0  0  0
  4  8  1  0  0  0  0
 11  9  1  0  0  0  0
 12 10  1  0  0  0  0
  1 11  1  0  0  0  0
 14 12  2  0  0  0  0
 13  1  1  0  0  0  0
 14 13  1  0  0  0  0
 16 15  1  0  0  0  0
 18 16  2  0  0  0  0
 19 17  1  0  0  0  0
  9 18  1  0  0  0  0
 10 19  1  0  0  0  0
  9 10  1  0  0  0  0
 20 15  1  0  0  0  0
 17 15  1  0  0  0  0
 21 20  1  0  0  0  0
 22 17  1  0  0  0  0
 23 22  1  0  0  0  0
 24 21  1  0  0  0  0
 23 21  1  0  0  0  0
 25 24  1  0  0  0  0
 26 23  1  0  0  0  0
 27 26  1  0  0  0  0
 29 28  1  0  0  0  0
 30 28  1  0  0  0  0
 31 29  2  0  0  0  0
 25 30  1  0  0  0  0
 32 31  1  0  0  0  0
 27 25  1  0  0  0  0
 32 27  1  0  0  0  0
 13  8  1  0  0  0  0
 33  4  1  0  0  0  0
  6  4  1  0  0  0  0
 34 33  1  0  0  0  0
 35  6  1  0  0  0  0
 37 34  1  0  0  0  0
 36 35  1  0  0  0  0
 38 36  1  0  0  0  0
 37 36  1  0  0  0  0
 39 38  1  0  0  0  0
 40 37  1  0  0  0  0
 41 40  1  0  0  0  0
 42 39  1  0  0  0  0
 41 39  1  0  0  0  0
 44 42  1  0  0  0  0
 43 41  1  0  0  0  0
 45 43  1  0  0  0  0
 47 45  1  0  0  0  0
 47 46  1  0  0  0  0
 48 44  1  0  0  0  0
 46 44  1  0  0  0  0
 49 48  1  0  0  0  0
 50 46  1  0  0  0  0
 51 50  1  0  0  0  0
 52 49  1  0  0  0  0
 51 49  1  0  0  0  0
 53 52  1  0  0  0  0
 54 51  1  0  0  0  0
 55 54  1  0  0  0  0
 56 55  1  0  0  0  0
 57 53  1  0  0  0  0
 56 53  1  0  0  0  0
 58 57  1  0  0  0  0
 59 56  1  0  0  0  0
 60 58  1  0  0  0  0
 60 59  1  0  0  0  0
 60 61  1  1  0  0  0
 62 60  1  0  0  0  0
 63 61  1  0  0  0  0
 64 62  1  0  0  0  0
 64 63  1  0  0  0  0
 65 28  1  0  0  0  0
 66 65  2  0  0  0  0
 67 66  1  0  0  0  0
 68 67  1  0  0  0  0
 69 68  1  0  0  0  0
 67 70  1  6  0  0  0
 28 71  1  6  0  0  0
 25 72  1  6  0  0  0
 21 73  1  6  0  0  0
 15 74  1  6  0  0  0
  9 75  1  6  0  0  0
  1 76  1  6  0  0  0
  6 77  1  6  0  0  0
 36 78  1  6  0  0  0
 39 79  1  6  0  0  0
 44 80  1  6  0  0  0
 49 81  1  6  0  0  0
 45 82  1  6  0  0  0
 24 83  1  6  0  0  0
 57 84  1  6  0  0  0
 55 85  1  6  0  0  0
 27 86  1  1  0  0  0
 23 87  1  1  0  0  0
 17 88  1  1  0  0  0
 10 89  1  1  0  0  0
 13 90  1  1  0  0  0
  4 91  1  1  0  0  0
 41 92  1  1  0  0  0
 46 93  1  1  0  0  0
 51 94  1  1  0  0  0
 56 95  1  1  0  0  0
 54 96  1  1  0  0  0
 58 97  1  1  0  0  0
 64 98  1  1  0  0  0
 34 99  1  1  0  0  0
 37100  1  1  0  0  0
 53101  1  6  0  0  0
M  END
> <ID>
CHEBI:36467

> <NAME>
ciguatoxin CTX1B

$$$$

Marvin  04230712512D          

 15 16  0  0  0  0            999 V2000
   -1.9375    2.4500    0.0000 C   0  0  0  0  0  0  0  0  0  0  0  0
   -2.6520    2.0375    0.0000 C   0  0  0  0  0  0  0  0  0  0  0  0
   -2.6520    1.2125    0.0000 C   0  0  0  0  0  0  0  0  0  0  0  0
   -1.9375    0.8000    0.0000 C   0  0  0  0  0  0  0  0  0  0  0  0
   -1.2230    2.0375    0.0000 C   0  0  0  0  0  0  0  0  0  0  0  0
   -1.2230    1.2125    0.0000 C   0  0  0  0  0  0  0  0  0  0  0  0
    0.0465    1.6250    0.0000 C   0  0  0  0  0  0  0  0  0  0  0  0
   -0.4384    0.9576    0.0000 N   0  0  0  0  0  0  0  0  0  0  0  0
   -0.4384    2.2925    0.0000 C   0  0  0  0  0  0  0  0  0  0  0  0
   -0.2249    3.0894    0.0000 C   0  0  0  0  0  0  0  0  0  0  0  0
    0.5720    3.3029    0.0000 N   0  0  0  0  0  0  0  0  0  0  0  0
    1.8698    3.1320    0.0000 S   0  0  0  0  0  0  0  0  0  0  0  0
    2.5843    2.7195    0.0000 C   0  0  0  0  0  0  0  0  0  0  0  0
    1.1554    2.7195    0.0000 C   0  0  0  0  0  0  0  0  0  0  0  0
    1.0043    1.8601    0.0000 S   0  0  0  0  0  0  0  0  0  0  0  0
  1  2  1  0  0  0  0
  1  5  2  0  0  0  0
  2  3  2  0  0  0  0
  3  4  1  0  0  0  0
  4  6  2  0  0  0  0
  9  5  1  0  0  0  0
  5  6  1  0  0  0  0
  6  8  1  0  0  0  0
  9  7  2  0  0  0  0
  8  7  1  0  0  0  0
  9 10  1  0  0  0  0
 10 11  1  0  0  0  0
 11 14  1  0  0  0  0
 14 12  1  0  0  0  0
 12 13  1  0  0  0  0
 14 15  2  0  0  0  0
M  END
> <ID>
CHEBI:38119

> <NAME>
brassinin

$$$$

Marvin  08080714572D          

 17 18  0  0  0  0            999 V2000
    1.7019    0.8992    0.0000 C   0  0  0  0  0  0  0  0  0  0  0  0
    2.4164    0.4867    0.0000 S   0  0  0  0  0  0  0  0  0  0  0  0
    3.1309    0.8992    0.0000 C   0  0  0  0  0  0  0  0  0  0  0  0
    3.1309    1.7242    0.0000 O   0  0  0  0  0  0  0  0  0  0  0  0
    3.8453    0.4867    0.0000 N   0  0  0  0  0  0  0  0  0  0  0  0
    4.5598    0.8992    0.0000 C   0  0  0  0  0  0  0  0  0  0  0  0
    5.2743    0.4867    0.0000 C   0  0  0  0  0  0  0  0  0  0  0  0
    5.9887    0.8992    0.0000 C   0  0  0  0  0  0  0  0  0  0  0  0
    1.1450   -1.0123    0.0000 C   0  0  0  0  0  0  0  0  0  0  0  0
    0.7325   -1.7268    0.0000 C   0  0  0  0  0  0  0  0  0  0  0  0
   -0.0925   -1.7268    0.0000 C   0  0  0  0  0  0  0  0  0  0  0  0
   -0.5050   -1.0123    0.0000 C   0  0  0  0  0  0  0  0  0  0  0  0
    0.7325   -0.2979    0.0000 C   0  0  0  0  0  0  0  0  0  0  0  0
   -0.0925   -0.2979    0.0000 C   0  0  0  0  0  0  0  0  0  0  0  0
    0.3200    0.9717    0.0000 C   0  0  0  0  0  0  0  0  0  0  0  0
   -0.3474    0.4867    0.0000 N   0  0  0  0  0  0  0  0  0  0  0  0
    0.9874    0.4867    0.0000 C   0  0  0  0  0  0  0  0  0  0  0  0
 17  1  1  0  0  0  0
  1  2  1  0  0  0  0
  2  3  1  0  0  0  0
  3  5  1  0  0  0  0
  3  4  2  0  0  0  0
  5  6  1  0  0  0  0
  6  7  1  0  0  0  0
  7  8  2  0  0  0  0
  9 10  2  0  0  0  0
  9 13  1  0  0  0  0
 10 11  1  0  0  0  0
 11 12  2  0  0  0  0
 12 14  1  0  0  0  0
 17 13  1  0  0  0  0
 13 14  2  0  0  0  0
 14 16  1  0  0  0  0
 17 15  2  0  0  0  0
 16 15  1  0  0  0  0
M  END
> <ID>
CHEBI:38130

> <NAME>
brussalexin A

$$$$

  Ketcher 04041717022D 1   1.00000     0.00000     0

  0  0  0     0  0            999 V2000
M  END> <ID>
CHEBI:38230

> <NAME>
solanapyrone

$$$$

Marvin  05040712062D          

 24 26  0  0  0  0            999 V2000
   -2.0270   -0.8188    0.0000 C   0  0  0  0  0  0  0  0  0  0  0  0
   -1.3125   -1.2313    0.0000 C   0  0  0  0  0  0  0  0  0  0  0  0
    0.1164    0.4188    0.0000 C   0  0  0  0  0  0  0  0  0  0  0  0
    0.1164   -1.2313    0.0000 C   0  0  0  0  0  0  0  0  0  0  0  0
    0.8309   -0.8188    0.0000 C   0  0  0  0  0  0  0  0  0  0  0  0
    0.8309    0.0063    0.0000 C   0  0  0  0  0  0  0  0  0  0  0  0
   -0.5980    0.0063    0.0000 C   0  0  2  0  0  0  0  0  0  0  0  0
   -0.5980    0.8313    0.0000 H   0  0  0  0  0  0  0  0  0  0  0  0
   -0.5980   -0.8188    0.0000 C   0  0  1  0  0  0  0  0  0  0  0  0
   -0.5980   -1.6438    0.0000 H   0  0  0  0  0  0  0  0  0  0  0  0
   -1.3125    0.4188    0.0000 C   0  0  2  0  0  0  0  0  0  0  0  0
   -1.3125    1.2438    0.0000 C   0  0  0  0  0  0  0  0  0  0  0  0
   -0.5980    1.6563    0.0000 C   0  0  0  0  0  0  0  0  0  0  0  0
   -2.0270    1.6563    0.0000 O   0  0  0  0  0  0  0  0  0  0  0  0
   -2.0270    2.4813    0.0000 C   0  0  0  0  0  0  0  0  0  0  0  0
   -2.7414    2.8938    0.0000 O   0  0  0  0  0  0  0  0  0  0  0  0
   -0.5980    2.4813    0.0000 C   0  0  0  0  0  0  0  0  0  0  0  0
   -2.0270    0.0063    0.0000 C   0  0  1  0  0  0  0  0  0  0  0  0
   -2.7414    0.4188    0.0000 C   0  0  0  0  0  0  0  0  0  0  0  0
   -1.3125    2.8938    0.0000 C   0  0  0  0  0  0  0  0  0  0  0  0
   -0.5980    4.1313    0.0000 O   0  0  0  0  0  0  0  0  0  0  0  0
   -1.3125    3.7188    0.0000 C   0  0  0  0  0  0  0  0  0  0  0  0
    0.1164    2.8938    0.0000 O   0  0  0  0  0  0  0  0  0  0  0  0
    0.8309    2.4813    0.0000 C   0  0  0  0  0  0  0  0  0  0  0  0
 11 18  1  0  0  0  0
 11  7  1  0  0  0  0
 18  1  1  0  0  0  0
  1  2  2  0  0  0  0
  2  9  1  0  0  0  0
  3  7  1  0  0  0  0
  7  9  1  0  0  0  0
  9  4  1  0  0  0  0
  3  6  1  0  0  0  0
  4  5  1  0  0  0  0
  5  6  1  0  0  0  0
  7  8  1  1  0  0  0
  9 10  1  1  0  0  0
 11 12  1  1  0  0  0
 14 12  1  0  0  0  0
 12 13  2  0  0  0  0
 20 15  1  0  0  0  0
 20 17  2  0  0  0  0
 15 14  1  0  0  0  0
 13 17  1  0  0  0  0
 15 16  2  0  0  0  0
 17 23  1  0  0  0  0
 18 19  1  6  0  0  0
 20 22  1  0  0  0  0
 22 21  1  0  0  0  0
 23 24  1  0  0  0  0
M  END
> <ID>
CHEBI:38235

> <NAME>
solanapyrone B

$$$$

Marvin  07081012232D          

 27 29  0  0  0  0            999 V2000
   -2.0270   -0.8188    0.0000 C   0  0  0  0  0  0  0  0  0  0  0  0
   -1.3125   -1.2313    0.0000 C   0  0  0  0  0  0  0  0  0  0  0  0
    0.1164    0.4188    0.0000 C   0  0  0  0  0  0  0  0  0  0  0  0
    0.1164   -1.2313    0.0000 C   0  0  0  0  0  0  0  0  0  0  0  0
    0.8309   -0.8188    0.0000 C   0  0  0  0  0  0  0  0  0  0  0  0
    0.8309    0.0063    0.0000 C   0  0  0  0  0  0  0  0  0  0  0  0
   -0.5980    0.0063    0.0000 C   0  0  2  0  0  0  0  0  0  0  0  0
   -0.5980    0.8313    0.0000 H   0  0  0  0  0  0  0  0  0  0  0  0
   -0.5980   -0.8188    0.0000 C   0  0  1  0  0  0  0  0  0  0  0  0
   -0.5980   -1.6438    0.0000 H   0  0  0  0  0  0  0  0  0  0  0  0
   -1.3125    0.4188    0.0000 C   0  0  2  0  0  0  0  0  0  0  0  0
   -1.3125    1.2438    0.0000 C   0  0  0  0  0  0  0  0  0  0  0  0
   -0.5980    1.6563    0.0000 C   0  0  0  0  0  0  0  0  0  0  0  0
   -2.0270    1.6563    0.0000 O   0  0  0  0  0  0  0  0  0  0  0  0
   -2.0270    2.4813    0.0000 C   0  0  0  0  0  0  0  0  0  0  0  0
   -2.7414    2.8938    0.0000 O   0  0  0  0  0  0  0  0  0  0  0  0
   -0.5980    2.4813    0.0000 C   0  0  0  0  0  0  0  0  0  0  0  0
   -2.0270    0.0063    0.0000 C   0  0  1  0  0  0  0  0  0  0  0  0
   -2.7414    0.4188    0.0000 C   0  0  0  0  0  0  0  0  0  0  0  0
   -1.3125    2.8938    0.0000 C   0  0  0  0  0  0  0  0  0  0  0  0
   -0.5980    4.1313    0.0000 O   0  0  0  0  0  0  0  0  0  0  0  0
   -1.3125    3.7188    0.0000 C   0  0  0  0  0  0  0  0  0  0  0  0
   -2.0270    4.1313    0.0000 H   0  0  0  0  0  0  0  0  0  0  0  0
    0.1164    2.8938    0.0000 N   0  0  0  0  0  0  0  0  0  0  0  0
    0.8309    2.4813    0.0000 C   0  0  0  0  0  0  0  0  0  0  0  0
    1.5453    2.8938    0.0000 C   0  0  0  0  0  0  0  0  0  0  0  0
    2.2598    2.4813    0.0000 O   0  0  0  0  0  0  0  0  0  0  0  0
 11 18  1  0  0  0  0
 11  7  1  0  0  0  0
 18  1  1  0  0  0  0
  1  2  2  0  0  0  0
  2  9  1  0  0  0  0
  3  7  1  0  0  0  0
  7  9  1  0  0  0  0
  9  4  1  0  0  0  0
  3  6  1  0  0  0  0
  4  5  1  0  0  0  0
  5  6  1  0  0  0  0
  7  8  1  1  0  0  0
  9 10  1  1  0  0  0
 11 12  1  1  0  0  0
 14 12  1  0  0  0  0
 12 13  2  0  0  0  0
 20 15  1  0  0  0  0
 20 17  2  0  0  0  0
 15 14  1  0  0  0  0
 13 17  1  0  0  0  0
 15 16  2  0  0  0  0
 17 24  1  0  0  0  0
 18 19  1  6  0  0  0
 20 22  1  0  0  0  0
 22 21  2  0  0  0  0
 22 23  1  0  0  0  0
 24 25  1  0  0  0  0
 25 26  1  0  0  0  0
 26 27  1  0  0  0  0
M  END
> <ID>
CHEBI:38239

> <NAME>
solanapyrone C

$$$$

Marvin  05040713362D          

 25 27  0  0  0  0            999 V2000
   -2.0270   -0.8188    0.0000 C   0  0  0  0  0  0  0  0  0  0  0  0
   -1.3125   -1.2313    0.0000 C   0  0  0  0  0  0  0  0  0  0  0  0
    0.1164    0.4188    0.0000 C   0  0  0  0  0  0  0  0  0  0  0  0
    0.1164   -1.2313    0.0000 C   0  0  0  0  0  0  0  0  0  0  0  0
    0.8309   -0.8188    0.0000 C   0  0  0  0  0  0  0  0  0  0  0  0
    0.8309    0.0063    0.0000 C   0  0  0  0  0  0  0  0  0  0  0  0
   -0.5980    0.0063    0.0000 C   0  0  2  0  0  0  0  0  0  0  0  0
   -0.5980    0.8313    0.0000 H   0  0  0  0  0  0  0  0  0  0  0  0
   -0.5980   -0.8188    0.0000 C   0  0  2  0  0  0  0  0  0  0  0  0
   -0.5980   -1.6438    0.0000 H   0  0  0  0  0  0  0  0  0  0  0  0
   -1.3125    0.4188    0.0000 C   0  0  2  0  0  0  0  0  0  0  0  0
   -1.3125    1.2438    0.0000 C   0  0  0  0  0  0  0  0  0  0  0  0
   -0.5980    1.6563    0.0000 C   0  0  0  0  0  0  0  0  0  0  0  0
   -2.0270    1.6563    0.0000 O   0  0  0  0  0  0  0  0  0  0  0  0
   -2.0270    2.4813    0.0000 C   0  0  0  0  0  0  0  0  0  0  0  0
   -2.7414    2.8938    0.0000 O   0  0  0  0  0  0  0  0  0  0  0  0
   -0.5980    2.4813    0.0000 C   0  0  0  0  0  0  0  0  0  0  0  0
   -2.0270    0.0063    0.0000 C   0  0  2  0  0  0  0  0  0  0  0  0
   -2.7414    0.4188    0.0000 C   0  0  0  0  0  0  0  0  0  0  0  0
   -1.3125    2.8938    0.0000 C   0  0  0  0  0  0  0  0  0  0  0  0
   -0.5980    4.1313    0.0000 O   0  0  0  0  0  0  0  0  0  0  0  0
   -1.3125    3.7188    0.0000 C   0  0  0  0  0  0  0  0  0  0  0  0
   -2.0270    4.1313    0.0000 H   0  0  0  0  0  0  0  0  0  0  0  0
    0.1164    2.8938    0.0000 O   0  0  0  0  0  0  0  0  0  0  0  0
    0.8309    2.4813    0.0000 C   0  0  0  0  0  0  0  0  0  0  0  0
 11 18  1  0  0  0  0
 11  7  1  0  0  0  0
 18  1  1  0  0  0  0
  1  2  2  0  0  0  0
  2  9  1  0  0  0  0
  3  7  1  0  0  0  0
  7  9  1  0  0  0  0
  9  4  1  0  0  0  0
  3  6  1  0  0  0  0
  4  5  1  0  0  0  0
  5  6  1  0  0  0  0
  7  8  1  1  0  0  0
  9 10  1  6  0  0  0
 11 12  1  1  0  0  0
 14 12  1  0  0  0  0
 12 13  2  0  0  0  0
 20 15  1  0  0  0  0
 20 17  2  0  0  0  0
 15 14  1  0  0  0  0
 13 17  1  0  0  0  0
 15 16  2  0  0  0  0
 17 24  1  0  0  0  0
 18 19  1  1  0  0  0
 20 22  1  0  0  0  0
 22 21  2  0  0  0  0
 22 23  1  0  0  0  0
 24 25  1  0  0  0  0
M  END
> <ID>
CHEBI:38240

> <NAME>
solanapyrone D

$$$$

Marvin  05040713462D          

 24 26  0  0  0  0            999 V2000
   -2.0270   -0.8188    0.0000 C   0  0  0  0  0  0  0  0  0  0  0  0
   -1.3125   -1.2313    0.0000 C   0  0  0  0  0  0  0  0  0  0  0  0
    0.1164    0.4188    0.0000 C   0  0  0  0  0  0  0  0  0  0  0  0
    0.1164   -1.2313    0.0000 C   0  0  0  0  0  0  0  0  0  0  0  0
    0.8309   -0.8188    0.0000 C   0  0  0  0  0  0  0  0  0  0  0  0
    0.8309    0.0063    0.0000 C   0  0  0  0  0  0  0  0  0  0  0  0
   -0.5980    0.0063    0.0000 C   0  0  2  0  0  0  0  0  0  0  0  0
   -0.5980    0.8313    0.0000 H   0  0  0  0  0  0  0  0  0  0  0  0
   -0.5980   -0.8188    0.0000 C   0  0  2  0  0  0  0  0  0  0  0  0
   -0.5980   -1.6438    0.0000 H   0  0  0  0  0  0  0  0  0  0  0  0
   -1.3125    0.4188    0.0000 C   0  0  2  0  0  0  0  0  0  0  0  0
   -1.3125    1.2438    0.0000 C   0  0  0  0  0  0  0  0  0  0  0  0
   -0.5980    1.6563    0.0000 C   0  0  0  0  0  0  0  0  0  0  0  0
   -2.0270    1.6563    0.0000 O   0  0  0  0  0  0  0  0  0  0  0  0
   -2.0270    2.4813    0.0000 C   0  0  0  0  0  0  0  0  0  0  0  0
   -2.7414    2.8938    0.0000 O   0  0  0  0  0  0  0  0  0  0  0  0
   -0.5980    2.4813    0.0000 C   0  0  0  0  0  0  0  0  0  0  0  0
   -2.0270    0.0063    0.0000 C   0  0  2  0  0  0  0  0  0  0  0  0
   -2.7414    0.4188    0.0000 C   0  0  0  0  0  0  0  0  0  0  0  0
   -1.3125    2.8938    0.0000 C   0  0  0  0  0  0  0  0  0  0  0  0
   -0.5980    4.1313    0.0000 O   0  0  0  0  0  0  0  0  0  0  0  0
   -1.3125    3.7188    0.0000 C   0  0  0  0  0  0  0  0  0  0  0  0
    0.1164    2.8938    0.0000 O   0  0  0  0  0  0  0  0  0  0  0  0
    0.8309    2.4813    0.0000 C   0  0  0  0  0  0  0  0  0  0  0  0
 11 18  1  0  0  0  0
 11  7  1  0  0  0  0
 18  1  1  0  0  0  0
  1  2  2  0  0  0  0
  2  9  1  0  0  0  0
  3  7  1  0  0  0  0
  7  9  1  0  0  0  0
  9  4  1  0  0  0  0
  3  6  1  0  0  0  0
  4  5  1  0  0  0  0
  5  6  1  0  0  0  0
  7  8  1  1  0  0  0
  9 10  1  6  0  0  0
 11 12  1  1  0  0  0
 14 12  1  0  0  0  0
 12 13  2  0  0  0  0
 20 15  1  0  0  0  0
 20 17  2  0  0  0  0
 15 14  1  0  0  0  0
 13 17  1  0  0  0  0
 15 16  2  0  0  0  0
 17 23  1  0  0  0  0
 18 19  1  1  0  0  0
 20 22  1  0  0  0  0
 22 21  1  0  0  0  0
 23 24  1  0  0  0  0
M  END
> <ID>
CHEBI:38241

> <NAME>
solanapyrone E

$$$$

  Ketcher 04041717022D 1   1.00000     0.00000     0

  0  0  0     0  0            999 V2000
M  END> <ID>
CHEBI:38615

> <NAME>
cyclopiazonic acid

$$$$

Marvin  03061310032D          

 25 29  0  0  1  0            999 V2000
   10.3138  -12.2155    0.0000 C   0  0  0  0  0  0  0  0  0  0  0  0
   11.0283  -11.8030    0.0000 C   0  0  0  0  0  0  0  0  0  0  0  0
    9.5292  -11.9605    0.0000 C   0  0  1  0  0  0  0  0  0  0  0  0
   10.3138  -13.0405    0.0000 C   0  0  0  0  0  0  0  0  0  0  0  0
   11.7428  -12.2155    0.0000 C   0  0  0  0  0  0  0  0  0  0  0  0
   11.0283  -10.9780    0.0000 O   0  0  0  0  0  0  0  0  0  0  0  0
    9.0443  -12.6280    0.0000 C   0  0  1  0  0  0  0  0  0  0  0  0
    9.0443  -11.2931    0.0000 C   0  0  0  0  0  0  0  0  0  0  0  0
   11.0283  -13.4530    0.0000 C   0  0  0  0  0  0  0  0  0  0  0  0
    9.5292  -13.2954    0.0000 O   0  0  0  0  0  0  0  0  0  0  0  0
   12.4572  -11.8030    0.0000 C   0  0  0  0  0  0  0  0  0  0  0  0
   11.7428  -13.0405    0.0000 C   0  0  0  0  0  0  0  0  0  0  0  0
   11.7428  -10.5655    0.0000 C   0  0  0  0  0  0  0  0  0  0  0  0
    8.2597  -12.3730    0.0000 O   0  0  0  0  0  0  0  0  0  0  0  0
    8.2597  -11.5480    0.0000 C   0  0  0  0  0  0  0  0  0  0  0  0
   12.4572  -10.9780    0.0000 C   0  0  0  0  0  0  0  0  0  0  0  0
   13.2419  -12.0579    0.0000 C   0  0  0  0  0  0  0  0  0  0  0  0
   12.4572  -13.4530    0.0000 O   0  0  0  0  0  0  0  0  0  0  0  0
   11.7428   -9.7405    0.0000 O   0  0  0  0  0  0  0  0  0  0  0  0
   13.2419  -10.7230    0.0000 C   0  0  0  0  0  0  0  0  0  0  0  0
   13.7268  -11.3905    0.0000 C   0  0  0  0  0  0  0  0  0  0  0  0
   13.1717  -13.0405    0.0000 C   0  0  0  0  0  0  0  0  0  0  0  0
   13.4968   -9.9384    0.0000 O   0  0  0  0  0  0  0  0  0  0  0  0
   10.0141  -11.2931    0.0000 H   0  0  0  0  0  0  0  0  0  0  0  0
    8.5594  -13.2954    0.0000 H   0  0  0  0  0  0  0  0  0  0  0  0
  1  2  2  0  0  0  0
  1  3  1  0  0  0  0
  1  4  1  0  0  0  0
  2  5  1  0  0  0  0
  2  6  1  0  0  0  0
  3  7  1  0  0  0  0
  3  8  1  0  0  0  0
  4  9  2  0  0  0  0
  4 10  1  0  0  0  0
  5 11  1  0  0  0  0
  5 12  2  0  0  0  0
  6 13  1  0  0  0  0
  7 14  1  0  0  0  0
  8 15  1  0  0  0  0
 11 16  2  0  0  0  0
 11 17  1  0  0  0  0
 12 18  1  0  0  0  0
 13 19  2  0  0  0  0
 16 20  1  0  0  0  0
 17 21  1  0  0  0  0
 18 22  1  0  0  0  0
 20 23  2  0  0  0  0
  7 10  1  0  0  0  0
  9 12  1  0  0  0  0
 13 16  1  0  0  0  0
 14 15  1  0  0  0  0
 20 21  1  0  0  0  0
  3 24  1  6  0  0  0
  7 25  1  6  0  0  0
M  END
> <ID>
CHEBI:48209

> <NAME>
aflatoxin B2

$$$$

Marvin  08221312512D          

 28 30  0  0  1  0            999 V2000
    9.0376  -11.1522    0.0000 C   0  0  1  0  0  0  0  0  0  0  0  0
    9.7521  -10.7397    0.0000 C   0  0  0  0  0  0  0  0  0  0  0  0
    8.3230  -10.7395    0.0000 C   0  0  0  0  0  0  0  0  0  0  0  0
    9.7520   -9.9146    0.0000 C   0  0  1  0  0  0  0  0  0  0  0  0
    8.3230   -9.9147    0.0000 C   0  0  2  0  0  0  0  0  0  0  0  0
    9.0375   -9.5021    0.0000 O   0  0  0  0  0  0  0  0  0  0  0  0
    9.0375  -11.9772    0.0000 O   0  0  0  0  0  0  0  0  0  0  0  0
    8.3229  -12.3896    0.0000 C   0  0  0  0  0  0  0  0  0  0  0  0
    7.6084  -11.9771    0.0000 O   0  0  0  0  0  0  0  0  0  0  0  0
    7.6085   -9.5022    0.0000 C   0  0  0  0  0  0  0  0  0  0  0  0
    6.8940   -9.9147    0.0000 C   0  0  0  0  0  0  0  0  0  0  0  0
    6.1796  -11.1522    0.0000 C   0  0  0  0  0  0  0  0  0  0  0  0
    6.8940  -12.3896    0.0000 C   0  0  0  0  0  0  0  0  0  0  0  0
    6.1796  -11.9771    0.0000 C   0  0  0  0  0  0  0  0  0  0  0  0
    8.3227  -13.2146    0.0000 C   0  0  0  0  0  0  0  0  0  0  0  0
    6.8939  -13.2145    0.0000 C   0  0  0  0  0  0  0  0  0  0  0  0
    7.6083  -13.6270    0.0000 C   0  0  0  0  0  0  0  0  0  0  0  0
   10.5357   -9.6576    0.0000 C   0  0  2  0  0  0  0  0  0  0  0  0
   11.2037  -10.1416    0.0000 C   0  0  0  0  0  0  0  0  0  0  0  0
   10.7895   -8.8726    0.0000 N   0  0  0  0  0  0  0  0  0  0  0  0
   11.8705   -9.6558    0.0000 S   0  0  0  0  0  0  0  0  0  0  0  0
   11.6146   -8.8714    0.0000 C   0  0  0  0  0  0  0  0  0  0  0  0
   12.0987   -8.2034    0.0000 O   0  0  0  0  0  0  0  0  0  0  0  0
    7.6082  -14.4520    0.0000 C   0  0  0  0  0  0  0  0  0  0  0  0
    9.7327   -9.0864    0.0000 O   0  0  0  0  0  0  0  0  0  0  0  0
   10.5618  -10.5314    0.0000 H   0  0  0  0  0  0  0  0  0  0  0  0
    6.8940  -10.7397    0.0000 C   0  0  1  0  0  0  0  0  0  0  0  0
    7.6085  -11.1522    0.0000 C   0  0  0  0  0  0  0  0  0  0  0  0
  2  1  1  0  0  0  0
  4  2  1  0  0  0  0
  6  4  1  0  0  0  0
  6  5  1  0  0  0  0
  1  7  1  6  0  0  0
  3  1  1  0  0  0  0
  8  7  1  0  0  0  0
  5  3  1  0  0  0  0
  5 10  1  1  0  0  0
 11 10  1  0  0  0  0
 14 12  2  0  0  0  0
 14 13  1  0  0  0  0
  8  9  2  0  0  0  0
 15  8  1  0  0  0  0
 16 13  1  0  0  0  0
 17 15  2  0  0  0  0
 17 16  1  0  0  0  0
 19 18  1  0  0  0  0
 20 18  1  0  0  0  0
 21 19  1  0  0  0  0
 22 20  1  0  0  0  0
 22 21  1  0  0  0  0
  4 18  1  0  0  0  0
 22 23  2  0  0  0  0
 17 24  1  0  0  0  0
  4 25  1  6  0  0  0
 18 26  1  6  0  0  0
 12 27  1  0  0  0  0
 27 11  1  0  0  0  0
 27 28  1  6  0  0  0
M  END
> <ID>
CHEBI:49703

> <NAME>
latrunculin B

$$$$
ChEBI
  Marvin  02201311112D          

 26 30  0  0  1  0            999 V2000
   10.7337   -6.5860    0.0000 C   0  0  2  0  0  0  0  0  0  0  0  0
   11.4591   -6.1838    0.0000 C   0  0  2  0  0  0  0  0  0  0  0  0
   10.1252   -6.0257    0.0000 C   0  0  0  0  0  0  0  0  0  0  0  0
   10.7200   -7.4144    0.0000 C   0  0  0  0  0  0  0  0  0  0  0  0
   10.0256   -6.9917    0.0000 O   0  0  0  0  0  0  0  0  0  0  0  0
   12.1671   -6.6101    0.0000 C   0  0  0  0  0  0  0  0  0  0  0  0
   11.2975   -5.3725    0.0000 O   0  0  0  0  0  0  0  0  0  0  0  0
   10.4725   -5.2763    0.0000 C   0  0  0  0  0  0  0  0  0  0  0  0
    9.3037   -6.1014    0.0000 C   0  0  0  0  0  0  0  0  0  0  0  0
   11.4315   -7.8407    0.0000 O   0  0  0  0  0  0  0  0  0  0  0  0
   12.1534   -7.4317    0.0000 C   0  0  0  0  0  0  0  0  0  0  0  0
   12.8856   -6.2079    0.0000 C   0  0  0  0  0  0  0  0  0  0  0  0
    9.9946   -4.6026    0.0000 C   0  0  0  0  0  0  0  0  0  0  0  0
    8.8259   -5.4276    0.0000 C   0  0  0  0  0  0  0  0  0  0  0  0
   12.8616   -7.8510    0.0000 C   0  0  0  0  0  0  0  0  0  0  0  0
   13.5903   -6.6273    0.0000 C   0  0  0  0  0  0  0  0  0  0  0  0
    9.1696   -4.6747    0.0000 C   0  0  0  0  0  0  0  0  0  0  0  0
   13.5765   -7.4522    0.0000 C   0  0  0  0  0  0  0  0  0  0  0  0
    8.6952   -4.0010    0.0000 O   0  0  0  0  0  0  0  0  0  0  0  0
   14.2846   -7.8716    0.0000 O   0  0  0  0  0  0  0  0  0  0  0  0
   12.1500   -5.7679    0.0000 H   0  0  0  0  0  0  0  0  0  0  0  0
   14.3029   -6.2217    0.0000 C   0  0  0  0  0  0  0  0  0  0  0  0
   15.0036   -7.4671    0.0000 C   0  0  0  0  0  0  0  0  0  0  0  0
   15.0128   -6.6421    0.0000 C   0  0  0  0  0  0  0  0  0  0  0  0
   15.5870   -8.0504    0.0000 C   0  0  0  0  0  0  0  0  0  0  0  0
   15.8005   -7.2535    0.0000 C   0  0  0  0  0  0  0  0  0  0  0  0
  1  2  1  0  0  0  0
  1  3  1  0  0  0  0
  1  4  1  0  0  0  0
  1  5  1  6  0  0  0
  2  6  1  0  0  0  0
  2  7  1  0  0  0  0
  3  8  2  0  0  0  0
  3  9  1  0  0  0  0
  4 10  1  0  0  0  0
  6 11  1  0  0  0  0
  6 12  2  0  0  0  0
  8 13  1  0  0  0  0
  9 14  2  0  0  0  0
 11 15  2  0  0  0  0
 12 16  1  0  0  0  0
 13 17  2  0  0  0  0
 15 18  1  0  0  0  0
 17 19  1  0  0  0  0
  7  8  1  0  0  0  0
 10 11  1  0  0  0  0
 14 17  1  0  0  0  0
  2 21  1  6  0  0  0
 20 23  1  0  0  0  0
 18 20  1  0  0  0  0
 16 18  2  0  0  0  0
 22 16  1  0  0  0  0
 23 24  1  0  0  0  0
 22 24  2  0  0  0  0
 23 25  1  0  0  0  0
 23 26  1  0  0  0  0
M  END
> <ID>
CHEBI:52127

> <NAME>
(-)-glyceollin II

$$$$

Marvin  09110911032D          

 27 31  0  0  1  0            999 V2000
   -0.6920   -0.3228    0.0000 C   0  0  0  0  0  0  0  0  0  0  0  0
    0.0225    0.0897    0.0000 C   0  0  0  0  0  0  0  0  0  0  0  0
   -1.4766   -0.0678    0.0000 C   0  0  1  0  0  0  0  0  0  0  0  0
   -0.6920   -1.1478    0.0000 C   0  0  0  0  0  0  0  0  0  0  0  0
    0.7370   -0.3228    0.0000 C   0  0  0  0  0  0  0  0  0  0  0  0
    0.0225    0.9147    0.0000 O   0  0  0  0  0  0  0  0  0  0  0  0
   -1.9615   -0.7353    0.0000 C   0  0  1  0  0  0  0  0  0  0  0  0
   -1.9615    0.5996    0.0000 C   0  0  0  0  0  0  0  0  0  0  0  0
    0.0225   -1.5603    0.0000 C   0  0  0  0  0  0  0  0  0  0  0  0
   -1.4766   -1.4027    0.0000 O   0  0  0  0  0  0  0  0  0  0  0  0
    1.4514    0.0897    0.0000 C   0  0  0  0  0  0  0  0  0  0  0  0
    0.7370   -1.1478    0.0000 C   0  0  0  0  0  0  0  0  0  0  0  0
    0.7370    1.3272    0.0000 C   0  0  0  0  0  0  0  0  0  0  0  0
   -2.7461   -0.4803    0.0000 O   0  0  0  0  0  0  0  0  0  0  0  0
   -2.7461    0.3447    0.0000 C   0  0  0  0  0  0  0  0  0  0  0  0
    1.4514    0.9147    0.0000 C   0  0  0  0  0  0  0  0  0  0  0  0
    2.2361   -0.1652    0.0000 C   0  0  0  0  0  0  0  0  0  0  0  0
    1.4514   -1.5603    0.0000 O   0  0  0  0  0  0  0  0  0  0  0  0
    0.7370    2.1522    0.0000 O   0  0  0  0  0  0  0  0  0  0  0  0
    2.2361    1.1697    0.0000 C   0  0  0  0  0  0  0  0  0  0  0  0
    2.7210    0.5022    0.0000 C   0  0  0  0  0  0  0  0  0  0  0  0
    2.1659   -1.1478    0.0000 C   0  0  0  0  0  0  0  0  0  0  0  0
    2.4910    1.9543    0.0000 O   0  0  0  0  0  0  0  0  0  0  0  0
   -0.9917    0.5996    0.0000 H   0  0  0  0  0  0  0  0  0  0  0  0
   -2.4464   -1.4027    0.0000 H   0  0  0  0  0  0  0  0  0  0  0  0
   -1.7480    1.3965    0.0000 O   0  0  0  0  0  0  0  0  0  0  0  0
   -3.3295    0.9281    0.0000 O   0  0  0  0  0  0  0  0  0  0  0  0
  1  2  2  0  0  0  0
  1  3  1  0  0  0  0
  1  4  1  0  0  0  0
  2  5  1  0  0  0  0
  2  6  1  0  0  0  0
  3  7  1  0  0  0  0
  3  8  1  0  0  0  0
  4  9  2  0  0  0  0
  4 10  1  0  0  0  0
  5 11  1  0  0  0  0
  5 12  2  0  0  0  0
  6 13  1  0  0  0  0
  7 14  1  0  0  0  0
  8 15  1  0  0  0  0
 11 16  2  0  0  0  0
 11 17  1  0  0  0  0
 12 18  1  0  0  0  0
 13 19  2  0  0  0  0
 16 20  1  0  0  0  0
 17 21  1  0  0  0  0
 18 22  1  0  0  0  0
 20 23  2  0  0  0  0
  7 10  1  0  0  0  0
  9 12  1  0  0  0  0
 13 16  1  0  0  0  0
 14 15  1  0  0  0  0
 20 21  1  0  0  0  0
  3 24  1  6  0  0  0
  7 25  1  6  0  0  0
  8 26  1  0  0  0  0
 15 27  1  0  0  0  0
M  END
> <ID>
CHEBI:53106

> <NAME>
aflatoxin B1 8,9-dihydrodiol

$$$$

Marvin  02101015292D          

 24 27  0  0  1  0            999 V2000
   15.5081   -6.1279    0.0000 C   0  0  0  0  0  0  0  0  0  0  0  0
   14.7936   -6.5404    0.0000 C   0  0  0  0  0  0  0  0  0  0  0  0
   14.7936   -7.3654    0.0000 C   0  0  0  0  0  0  0  0  0  0  0  0
   15.5081   -7.7779    0.0000 C   0  0  0  0  0  0  0  0  0  0  0  0
   16.2225   -7.3654    0.0000 C   0  0  0  0  0  0  0  0  0  0  0  0
   16.2225   -6.5404    0.0000 C   0  0  2  0  0  0  0  0  0  0  0  0
   16.9370   -6.1279    0.0000 O   0  0  0  0  0  0  0  0  0  0  0  0
   16.9370   -7.7779    0.0000 C   0  0  2  0  0  0  0  0  0  0  0  0
   17.6515   -7.3654    0.0000 C   0  0  0  0  0  0  0  0  0  0  0  0
   17.6515   -6.5404    0.0000 C   0  0  1  0  0  0  0  0  0  0  0  0
   14.0791   -6.1279    0.0000 C   0  0  0  0  0  0  0  0  0  0  0  0
   16.2225   -5.7154    0.0000 H   0  0  0  0  0  0  0  0  0  0  0  0
   18.2348   -7.1238    0.0000 C   0  0  1  0  0  0  0  0  0  0  0  0
   17.7339   -7.9915    0.0000 C   0  0  1  0  0  0  0  0  0  0  0  0
   18.4765   -7.3654    0.0000 C   0  0  0  0  0  0  0  0  0  0  0  0
   18.0640   -8.0799    0.0000 O   0  0  0  0  0  0  0  0  0  0  0  0
   19.0317   -6.9102    0.0000 R#  0  0  0  0  0  0  0  0  0  0  0  0
   17.9474   -8.7883    0.0000 R#  0  0  0  0  0  0  0  0  0  0  0  0
   16.9370   -8.6029    0.0000 C   0  0  0  0  0  0  0  0  0  0  0  0
   18.2348   -5.9570    0.0000 H   0  0  0  0  0  0  0  0  0  0  0  0
   16.2225   -8.1904    0.0000 C   0  0  0  0  0  0  0  0  0  0  0  0
   15.5081   -8.6029    0.0000 R#  0  0  0  0  0  0  0  0  0  0  0  0
   15.8100   -8.9049    0.0000 R#  0  0  0  0  0  0  0  0  0  0  0  0
   14.0791   -7.7779    0.0000 R#  0  0  0  0  0  0  0  0  0  0  0  0
  1  2  2  0  0  0  0
  2  3  1  0  0  0  0
  3  4  1  0  0  0  0
  4  5  1  0  0  0  0
  1  6  1  0  0  0  0
  7  6  1  0  0  0  0
  6  5  1  0  0  0  0
  5  8  1  0  0  0  0
  8  9  1  1  0  0  0
 10  9  1  1  0  0  0
  7 10  1  0  0  0  0
  2 11  1  0  0  0  0
  6 12  1  6  0  0  0
 10 13  1  0  0  0  0
  8 14  1  0  0  0  0
 13 14  1  0  0  0  0
  9 15  1  0  0  0  0
  9 16  1  0  0  0  0
 15 16  1  0  0  0  0
 13 17  1  6  0  0  0
 14 18  1  1  0  0  0
  8 19  1  1  0  0  0
 10 20  1  1  0  0  0
  5 21  1  0  0  0  0
  4 22  1  0  0  0  0
 21 23  1  0  0  0  0
  3 24  1  0  0  0  0
M  RGP  5  17   1  18   2  22   4  23   3  24   5
M  END
> <ID>
CHEBI:55517

> <NAME>
trichothecene

$$$$

  Ketcher 04041717022D 1   1.00000     0.00000     0

  0  0  0     0  0            999 V2000
M  END> <ID>
CHEBI:59524

> <NAME>
lipoarabinomannan

$$$$

  Ketcher 04041717022D 1   1.00000     0.00000     0

  0  0  0     0  0            999 V2000
M  END> <ID>
CHEBI:60951

> <NAME>
flavonoid phytoalexin

$$$$

  Ketcher 04041717022D 1   1.00000     0.00000     0

  0  0  0     0  0            999 V2000
M  END> <ID>
CHEBI:60952

> <NAME>
diterpene phytoalexin

$$$$

Marvin  02081114282D          

 94106  0  0  1  0            999 V2000
    8.5495   -6.9270    0.0000 C   0  0  0  0  0  0  0  0  0  0  0  0
    9.0806   -6.3959    0.0000 C   0  0  0  0  0  0  0  0  0  0  0  0
    8.5495   -7.6781    0.0000 C   0  0  2  0  0  0  0  0  0  0  0  0
    9.0806   -8.2091    0.0000 C   0  0  1  0  0  0  0  0  0  0  0  0
    9.8316   -6.3959    0.0000 C   0  0  0  0  0  0  0  0  0  0  0  0
    9.8316   -8.2091    0.0000 O   0  0  0  0  0  0  0  0  0  0  0  0
   10.3627   -6.9270    0.0000 C   0  0  1  0  0  0  0  0  0  0  0  0
   10.3627   -7.6781    0.0000 C   0  0  1  0  0  0  0  0  0  0  0  0
    7.6490   -9.1003    0.0000 C   0  0  2  0  0  0  0  0  0  0  0  0
    8.3571   -9.3511    0.0000 C   0  0  0  0  0  0  0  0  0  0  0  0
    7.4038   -8.3904    0.0000 C   0  0  1  0  0  0  0  0  0  0  0  0
    8.9946   -8.9541    0.0000 C   0  0  0  0  0  0  0  0  0  0  0  0
    7.8060   -7.7560    0.0000 O   0  0  0  0  0  0  0  0  0  0  0  0
    7.1569   -9.6675    0.0000 O   0  0  0  0  0  0  0  0  0  0  0  0
    6.4195   -9.5249    0.0000 C   0  0  2  0  0  0  0  0  0  0  0  0
    6.6664   -8.2477    0.0000 C   0  0  0  0  0  0  0  0  0  0  0  0
    6.1743   -8.8150    0.0000 C   0  0  1  0  0  0  0  0  0  0  0  0
    5.9273  -10.0921    0.0000 C   0  0  1  0  0  0  0  0  0  0  0  0
    5.1899   -9.9494    0.0000 C   0  0  2  0  0  0  0  0  0  0  0  0
    5.4370   -8.6725    0.0000 O   0  0  0  0  0  0  0  0  0  0  0  0
    4.9448   -9.2396    0.0000 C   0  0  1  0  0  0  0  0  0  0  0  0
    4.0744  -10.6085    0.0000 C   0  0  0  0  0  0  0  0  0  0  0  0
    3.5119  -10.1286    0.0000 C   0  0  0  0  0  0  0  0  0  0  0  0
    4.7867  -10.5831    0.0000 O   0  0  0  0  0  0  0  0  0  0  0  0
    3.6004   -9.3827    0.0000 C   0  0  0  0  0  0  0  0  0  0  0  0
    4.2386   -8.9869    0.0000 C   0  0  0  0  0  0  0  0  0  0  0  0
    5.5755  -10.7354    0.0000 H   0  0  0  0  0  0  0  0  0  0  0  0
    6.7201  -10.2676    0.0000 H   0  0  0  0  0  0  0  0  0  0  0  0
    8.0414   -9.8952    0.0000 H   0  0  0  0  0  0  0  0  0  0  0  0
    9.7446   -8.9346    0.0000 H   0  0  0  0  0  0  0  0  0  0  0  0
    6.2163  -10.8204    0.0000 O   0  0  0  0  0  0  0  0  0  0  0  0
    4.6229   -8.4863    0.0000 H   0  0  0  0  0  0  0  0  0  0  0  0
    5.8987   -8.0255    0.0000 H   0  0  0  0  0  0  0  0  0  0  0  0
    7.1621   -7.3705    0.0000 H   0  0  0  0  0  0  0  0  0  0  0  0
    7.8833   -7.1423    0.0000 H   0  0  0  0  0  0  0  0  0  0  0  0
   10.9847   -8.1700    0.0000 C   0  0  0  0  0  0  0  0  0  0  0  0
   11.7311   -8.2533    0.0000 C   0  0  0  0  0  0  0  0  0  0  0  0
   11.1882   -6.1645    0.0000 C   0  0  2  0  0  0  0  0  0  0  0  0
   12.3178   -7.7843    0.0000 C   0  0  0  0  0  0  0  0  0  0  0  0
   12.0084   -6.3631    0.0000 C   0  0  2  0  0  0  0  0  0  0  0  0
   12.4013   -7.0380    0.0000 C   0  0  0  0  0  0  0  0  0  0  0  0
   10.6401   -6.3439    0.0000 O   0  0  0  0  0  0  0  0  0  0  0  0
   10.8321   -5.3996    0.0000 C   0  0  0  0  0  0  0  0  0  0  0  0
   11.2079   -4.6442    0.0000 C   0  0  2  0  0  0  0  0  0  0  0  0
   12.6748   -5.8454    0.0000 O   0  0  0  0  0  0  0  0  0  0  0  0
   12.6858   -5.0017    0.0000 C   0  0  1  0  0  0  0  0  0  0  0  0
   12.0330   -4.4671    0.0000 C   0  0  1  0  0  0  0  0  0  0  0  0
   13.4752   -4.7036    0.0000 C   0  0  0  0  0  0  0  0  0  0  0  0
   13.6117   -3.8710    0.0000 C   0  0  1  0  0  0  0  0  0  0  0  0
   12.1695   -3.6344    0.0000 O   0  0  0  0  0  0  0  0  0  0  0  0
   12.9589   -3.3363    0.0000 C   0  0  2  0  0  0  0  0  0  0  0  0
   14.4513   -3.7873    0.0000 O   0  0  0  0  0  0  0  0  0  0  0  0
   12.8753   -2.4968    0.0000 C   0  0  0  0  0  0  0  0  0  0  0  0
   14.9859   -3.1345    0.0000 C   0  0  1  0  0  0  0  0  0  0  0  0
   13.4099   -1.8439    0.0000 C   0  0  1  0  0  0  0  0  0  0  0  0
   14.9023   -2.2949    0.0000 C   0  0  2  0  0  0  0  0  0  0  0  0
   14.2495   -1.7603    0.0000 C   0  0  0  0  0  0  0  0  0  0  0  0
   15.7548   -3.4818    0.0000 C   0  0  0  0  0  0  0  0  0  0  0  0
   16.4401   -2.9896    0.0000 C   0  0  1  0  0  0  0  0  0  0  0  0
   15.5875   -1.8027    0.0000 O   0  0  0  0  0  0  0  0  0  0  0  0
   16.3565   -2.1500    0.0000 C   0  0  2  0  0  0  0  0  0  0  0  0
   17.1488   -3.4475    0.0000 O   0  0  0  0  0  0  0  0  0  0  0  0
   17.9487   -3.1792    0.0000 C   0  0  1  0  0  0  0  0  0  0  0  0
   16.9608   -1.5612    0.0000 C   0  0  2  0  0  0  0  0  0  0  0  0
   17.7980   -1.6664    0.0000 C   0  0  1  0  0  0  0  0  0  0  0  0
   18.2376   -2.3866    0.0000 C   0  0  2  0  0  0  0  0  0  0  0  0
   18.4908   -3.8258    0.0000 C   0  0  2  0  0  0  0  0  0  0  0  0
   19.3218   -3.6796    0.0000 C   0  0  1  0  0  0  0  0  0  0  0  0
   19.0686   -2.2404    0.0000 O   0  0  0  0  0  0  0  0  0  0  0  0
   19.6106   -2.8869    0.0000 C   0  0  1  0  0  0  0  0  0  0  0  0
   19.8102   -2.1629    0.0000 O   0  0  0  0  0  0  0  0  0  0  0  0
   20.2375   -3.3006    0.0000 C   0  0  0  0  0  0  0  0  0  0  0  0
   20.5607   -2.1291    0.0000 C   0  0  0  0  0  0  0  0  0  0  0  0
   20.8248   -2.8322    0.0000 C   0  0  0  0  0  0  0  0  0  0  0  0
   10.4469   -8.5310    0.0000 H   0  0  0  0  0  0  0  0  0  0  0  0
   12.8887   -6.5796    0.0000 H   0  0  0  0  0  0  0  0  0  0  0  0
   13.3697   -5.4169    0.0000 H   0  0  0  0  0  0  0  0  0  0  0  0
   14.2729   -4.4387    0.0000 H   0  0  0  0  0  0  0  0  0  0  0  0
   15.1745   -4.0661    0.0000 H   0  0  0  0  0  0  0  0  0  0  0  0
   16.4459   -3.9382    0.0000 H   0  0  0  0  0  0  0  0  0  0  0  0
   13.0536   -1.0913    0.0000 C   0  0  0  0  0  0  0  0  0  0  0  0
   18.3525   -4.6396    0.0000 C   0  0  0  0  0  0  0  0  0  0  0  0
   18.2414   -0.9833    0.0000 O   0  0  0  0  0  0  0  0  0  0  0  0
   10.1018   -6.0598    0.0000 H   0  0  0  0  0  0  0  0  0  0  0  0
   10.5142   -5.7853    0.0000 H   0  0  0  0  0  0  0  0  0  0  0  0
   12.1892   -2.7252    0.0000 H   0  0  0  0  0  0  0  0  0  0  0  0
   14.9670   -1.3659    0.0000 H   0  0  0  0  0  0  0  0  0  0  0  0
   16.1523   -1.2794    0.0000 H   0  0  0  0  0  0  0  0  0  0  0  0
   18.5953   -1.6437    0.0000 H   0  0  0  0  0  0  0  0  0  0  0  0
   16.6955   -0.6987    0.0000 C   0  0  0  0  0  0  0  0  0  0  0  0
   19.8049   -4.1656    0.0000 C   0  0  0  0  0  0  0  0  0  0  0  0
   10.6559   -3.9231    0.0000 O   0  0  0  0  0  0  0  0  0  0  0  0
   11.4065   -3.9000    0.0000 C   0  0  0  0  0  0  0  0  0  0  0  0
   17.6479   -3.9758    0.0000 H   0  0  0  0  0  0  0  0  0  0  0  0
  2  1  1  0  0  0  0
  3  1  1  0  0  0  0
  5  2  2  0  0  0  0
  6  4  1  0  0  0  0
  7  5  1  0  0  0  0
  8  6  1  0  0  0  0
 10  9  1  0  0  0  0
 12 10  2  0  0  0  0
 13 11  1  0  0  0  0
  4 12  1  0  0  0  0
  3 13  1  0  0  0  0
  4  3  1  0  0  0  0
 14  9  1  0  0  0  0
 11  9  1  0  0  0  0
 15 14  1  0  0  0  0
 16 11  1  0  0  0  0
 17 16  1  0  0  0  0
 18 15  1  0  0  0  0
 17 15  1  0  0  0  0
 19 18  1  0  0  0  0
 20 17  1  0  0  0  0
 21 20  1  0  0  0  0
 23 22  1  0  0  0  0
 24 22  1  0  0  0  0
 25 23  2  0  0  0  0
 19 24  1  0  0  0  0
 26 25  1  0  0  0  0
 21 19  1  0  0  0  0
 26 21  1  0  0  0  0
 19 27  1  6  0  0  0
 15 28  1  6  0  0  0
  9 29  1  6  0  0  0
  4 30  1  6  0  0  0
 18 31  1  6  0  0  0
 21 32  1  1  0  0  0
 17 33  1  1  0  0  0
 11 34  1  1  0  0  0
  3 35  1  1  0  0  0
 36  8  1  0  0  0  0
 37 36  1  0  0  0  0
 39 37  2  0  0  0  0
 41 39  1  0  0  0  0
 41 40  1  0  0  0  0
 38 42  1  0  0  0  0
  7  8  1  0  0  0  0
  7 42  1  0  0  0  0
 43 38  1  0  0  0  0
 40 38  1  0  0  0  0
 44 43  1  0  0  0  0
 45 40  1  0  0  0  0
 47 44  1  0  0  0  0
 46 45  1  0  0  0  0
 48 46  1  0  0  0  0
 47 46  1  0  0  0  0
 49 48  1  0  0  0  0
 50 47  1  0  0  0  0
 51 50  1  0  0  0  0
 52 49  1  0  0  0  0
 51 49  1  0  0  0  0
 54 52  1  0  0  0  0
 53 51  1  0  0  0  0
 55 53  1  0  0  0  0
 57 55  1  0  0  0  0
 57 56  1  0  0  0  0
 58 54  1  0  0  0  0
 56 54  1  0  0  0  0
 59 58  1  0  0  0  0
 60 56  1  0  0  0  0
 61 60  1  0  0  0  0
 62 59  1  0  0  0  0
 61 59  1  0  0  0  0
 63 62  1  0  0  0  0
 64 61  1  0  0  0  0
 65 64  1  0  0  0  0
 66 65  1  0  0  0  0
 67 63  1  0  0  0  0
 66 63  1  0  0  0  0
 68 67  1  0  0  0  0
 69 66  1  0  0  0  0
 70 68  1  0  0  0  0
 70 69  1  0  0  0  0
 70 71  1  1  0  0  0
 72 70  1  0  0  0  0
 73 71  1  0  0  0  0
 74 72  1  0  0  0  0
 74 73  1  0  0  0  0
  8 75  1  6  0  0  0
 40 76  1  6  0  0  0
 46 77  1  6  0  0  0
 49 78  1  6  0  0  0
 54 79  1  6  0  0  0
 59 80  1  6  0  0  0
 55 81  1  6  0  0  0
 67 82  1  6  0  0  0
 65 83  1  6  0  0  0
  7 84  1  1  0  0  0
 38 85  1  1  0  0  0
 51 86  1  1  0  0  0
 56 87  1  1  0  0  0
 61 88  1  1  0  0  0
 66 89  1  1  0  0  0
 64 90  1  1  0  0  0
 68 91  1  1  0  0  0
 44 92  1  1  0  0  0
 47 93  1  1  0  0  0
 63 94  1  6  0  0  0
M  END
> <ID>
CHEBI:61277

> <NAME>
ciguatoxin CTX3C

$$$$

Marvin  02081115052D          

 95107  0  0  1  0            999 V2000
    4.2543   -7.4389    0.0000 C   0  0  0  0  0  0  0  0  0  0  0  0
    4.7857   -6.9075    0.0000 C   0  0  0  0  0  0  0  0  0  0  0  0
    4.2543   -8.1905    0.0000 C   0  0  2  0  0  0  0  0  0  0  0  0
    4.7857   -8.7219    0.0000 C   0  0  1  0  0  0  0  0  0  0  0  0
    5.5373   -6.9075    0.0000 C   0  0  0  0  0  0  0  0  0  0  0  0
    5.5373   -8.7219    0.0000 O   0  0  0  0  0  0  0  0  0  0  0  0
    6.0687   -7.4389    0.0000 C   0  0  1  0  0  0  0  0  0  0  0  0
    6.0687   -8.1905    0.0000 C   0  0  1  0  0  0  0  0  0  0  0  0
    3.3531   -9.6137    0.0000 C   0  0  2  0  0  0  0  0  0  0  0  0
    4.0617   -9.8646    0.0000 C   0  0  0  0  0  0  0  0  0  0  0  0
    3.1077   -8.9033    0.0000 C   0  0  1  0  0  0  0  0  0  0  0  0
    4.6997   -9.4674    0.0000 C   0  0  0  0  0  0  0  0  0  0  0  0
    3.5102   -8.2685    0.0000 O   0  0  0  0  0  0  0  0  0  0  0  0
    2.8607  -10.1814    0.0000 O   0  0  0  0  0  0  0  0  0  0  0  0
    2.1227  -10.0386    0.0000 C   0  0  2  0  0  0  0  0  0  0  0  0
    2.3698   -8.7606    0.0000 C   0  0  0  0  0  0  0  0  0  0  0  0
    1.8774   -9.3283    0.0000 C   0  0  1  0  0  0  0  0  0  0  0  0
    1.6302  -10.6062    0.0000 C   0  0  1  0  0  0  0  0  0  0  0  0
    0.8923  -10.4635    0.0000 C   0  0  2  0  0  0  0  0  0  0  0  0
    1.1396   -9.1856    0.0000 O   0  0  0  0  0  0  0  0  0  0  0  0
    0.6470   -9.7532    0.0000 C   0  0  1  0  0  0  0  0  0  0  0  0
   -0.2240  -11.1230    0.0000 C   0  0  0  0  0  0  0  0  0  0  0  0
   -0.7868  -10.6428    0.0000 C   0  0  0  0  0  0  0  0  0  0  0  0
    0.4888  -11.0976    0.0000 O   0  0  0  0  0  0  0  0  0  0  0  0
   -0.6984   -9.8964    0.0000 C   0  0  0  0  0  0  0  0  0  0  0  0
   -0.0597   -9.5002    0.0000 C   0  0  0  0  0  0  0  0  0  0  0  0
    1.2781  -11.2499    0.0000 H   0  0  0  0  0  0  0  0  0  0  0  0
    2.4235  -10.7819    0.0000 H   0  0  0  0  0  0  0  0  0  0  0  0
    3.7458  -10.4091    0.0000 H   0  0  0  0  0  0  0  0  0  0  0  0
    5.4502   -9.4480    0.0000 H   0  0  0  0  0  0  0  0  0  0  0  0
    1.9194  -11.3351    0.0000 O   0  0  0  0  0  0  0  0  0  0  0  0
    0.3249   -8.9993    0.0000 H   0  0  0  0  0  0  0  0  0  0  0  0
    1.6016   -8.5382    0.0000 H   0  0  0  0  0  0  0  0  0  0  0  0
    2.8659   -7.8827    0.0000 H   0  0  0  0  0  0  0  0  0  0  0  0
    3.5876   -7.6544    0.0000 H   0  0  0  0  0  0  0  0  0  0  0  0
    6.6911   -8.6828    0.0000 C   0  0  0  0  0  0  0  0  0  0  0  0
    7.4381   -8.7661    0.0000 C   0  0  0  0  0  0  0  0  0  0  0  0
    6.8947   -6.6759    0.0000 C   0  0  2  0  0  0  0  0  0  0  0  0
    8.0251   -8.2969    0.0000 C   0  0  0  0  0  0  0  0  0  0  0  0
    7.7155   -6.8746    0.0000 C   0  0  2  0  0  0  0  0  0  0  0  0
    8.1087   -7.5499    0.0000 C   0  0  0  0  0  0  0  0  0  0  0  0
    6.3463   -6.8554    0.0000 O   0  0  0  0  0  0  0  0  0  0  0  0
    6.5384   -5.9105    0.0000 C   0  0  0  0  0  0  0  0  0  0  0  0
    6.9145   -5.1545    0.0000 C   0  0  2  0  0  0  0  0  0  0  0  0
    8.3823   -6.3566    0.0000 O   0  0  0  0  0  0  0  0  0  0  0  0
    8.3934   -5.5123    0.0000 C   0  0  1  0  0  0  0  0  0  0  0  0
    7.7401   -4.9773    0.0000 C   0  0  1  0  0  0  0  0  0  0  0  0
    9.1834   -5.2140    0.0000 C   0  0  0  0  0  0  0  0  0  0  0  0
    9.3199   -4.3807    0.0000 C   0  0  1  0  0  0  0  0  0  0  0  0
    7.8768   -4.1441    0.0000 O   0  0  0  0  0  0  0  0  0  0  0  0
    8.6667   -3.8457    0.0000 C   0  0  2  0  0  0  0  0  0  0  0  0
   10.1602   -4.2970    0.0000 O   0  0  0  0  0  0  0  0  0  0  0  0
    8.5831   -3.0057    0.0000 C   0  0  0  0  0  0  0  0  0  0  0  0
   10.6951   -3.6438    0.0000 C   0  0  1  0  0  0  0  0  0  0  0  0
    9.1180   -2.3524    0.0000 C   0  0  1  0  0  0  0  0  0  0  0  0
   10.6114   -2.8035    0.0000 C   0  0  2  0  0  0  0  0  0  0  0  0
    9.9581   -2.2686    0.0000 C   0  0  0  0  0  0  0  0  0  0  0  0
   11.4646   -3.9914    0.0000 C   0  0  0  0  0  0  0  0  0  0  0  0
   12.1503   -3.4988    0.0000 C   0  0  1  0  0  0  0  0  0  0  0  0
   11.2972   -2.3110    0.0000 O   0  0  0  0  0  0  0  0  0  0  0  0
   12.0667   -2.6585    0.0000 C   0  0  2  0  0  0  0  0  0  0  0  0
   12.8595   -3.9571    0.0000 O   0  0  0  0  0  0  0  0  0  0  0  0
   13.6600   -3.6885    0.0000 C   0  0  1  0  0  0  0  0  0  0  0  0
   12.6714   -2.0694    0.0000 C   0  0  2  0  0  0  0  0  0  0  0  0
   13.5092   -2.1746    0.0000 C   0  0  1  0  0  0  0  0  0  0  0  0
   13.9492   -2.8953    0.0000 C   0  0  2  0  0  0  0  0  0  0  0  0
   14.2024   -4.3356    0.0000 C   0  0  2  0  0  0  0  0  0  0  0  0
   15.0340   -4.1892    0.0000 C   0  0  1  0  0  0  0  0  0  0  0  0
   14.7806   -2.7491    0.0000 O   0  0  0  0  0  0  0  0  0  0  0  0
   15.3231   -3.3960    0.0000 C   0  0  1  0  0  0  0  0  0  0  0  0
   15.5228   -2.6715    0.0000 O   0  0  0  0  0  0  0  0  0  0  0  0
   15.9503   -3.8099    0.0000 C   0  0  0  0  0  0  0  0  0  0  0  0
   16.2738   -2.6376    0.0000 C   0  0  0  0  0  0  0  0  0  0  0  0
   16.5381   -3.3412    0.0000 C   0  0  1  0  0  0  0  0  0  0  0  0
    6.1529   -9.0441    0.0000 H   0  0  0  0  0  0  0  0  0  0  0  0
    8.5965   -7.0913    0.0000 H   0  0  0  0  0  0  0  0  0  0  0  0
    9.0777   -5.9277    0.0000 H   0  0  0  0  0  0  0  0  0  0  0  0
    9.9816   -4.9489    0.0000 H   0  0  0  0  0  0  0  0  0  0  0  0
   10.8839   -4.5760    0.0000 H   0  0  0  0  0  0  0  0  0  0  0  0
   12.1561   -4.4481    0.0000 H   0  0  0  0  0  0  0  0  0  0  0  0
    8.7614   -1.5991    0.0000 C   0  0  0  0  0  0  0  0  0  0  0  0
   14.0640   -5.1499    0.0000 C   0  0  0  0  0  0  0  0  0  0  0  0
   13.9529   -1.4910    0.0000 O   0  0  0  0  0  0  0  0  0  0  0  0
    5.8076   -6.5711    0.0000 H   0  0  0  0  0  0  0  0  0  0  0  0
    6.2203   -6.2964    0.0000 H   0  0  0  0  0  0  0  0  0  0  0  0
    7.8965   -3.2341    0.0000 H   0  0  0  0  0  0  0  0  0  0  0  0
   10.6762   -1.8739    0.0000 H   0  0  0  0  0  0  0  0  0  0  0  0
   11.8623   -1.7874    0.0000 H   0  0  0  0  0  0  0  0  0  0  0  0
   14.3070   -2.1520    0.0000 H   0  0  0  0  0  0  0  0  0  0  0  0
   12.4059   -1.2063    0.0000 C   0  0  0  0  0  0  0  0  0  0  0  0
   15.5175   -4.6756    0.0000 C   0  0  0  0  0  0  0  0  0  0  0  0
    6.3621   -4.4329    0.0000 O   0  0  0  0  0  0  0  0  0  0  0  0
    7.1133   -4.4098    0.0000 C   0  0  0  0  0  0  0  0  0  0  0  0
   13.3589   -4.4856    0.0000 H   0  0  0  0  0  0  0  0  0  0  0  0
   17.2626   -3.5410    0.0000 O   0  0  0  0  0  0  0  0  0  0  0  0
  2  1  1  0  0  0  0
  3  1  1  0  0  0  0
  5  2  2  0  0  0  0
  6  4  1  0  0  0  0
  7  5  1  0  0  0  0
  8  6  1  0  0  0  0
 10  9  1  0  0  0  0
 12 10  2  0  0  0  0
 13 11  1  0  0  0  0
  4 12  1  0  0  0  0
  3 13  1  0  0  0  0
  4  3  1  0  0  0  0
 14  9  1  0  0  0  0
 11  9  1  0  0  0  0
 15 14  1  0  0  0  0
 16 11  1  0  0  0  0
 17 16  1  0  0  0  0
 18 15  1  0  0  0  0
 17 15  1  0  0  0  0
 19 18  1  0  0  0  0
 20 17  1  0  0  0  0
 21 20  1  0  0  0  0
 23 22  1  0  0  0  0
 24 22  1  0  0  0  0
 25 23  2  0  0  0  0
 19 24  1  0  0  0  0
 26 25  1  0  0  0  0
 21 19  1  0  0  0  0
 26 21  1  0  0  0  0
 19 27  1  6  0  0  0
 15 28  1  6  0  0  0
  9 29  1  6  0  0  0
  4 30  1  6  0  0  0
 18 31  1  6  0  0  0
 21 32  1  1  0  0  0
 17 33  1  1  0  0  0
 11 34  1  1  0  0  0
  3 35  1  1  0  0  0
 36  8  1  0  0  0  0
 37 36  1  0  0  0  0
 39 37  2  0  0  0  0
 41 39  1  0  0  0  0
 41 40  1  0  0  0  0
 38 42  1  0  0  0  0
  7  8  1  0  0  0  0
  7 42  1  0  0  0  0
 43 38  1  0  0  0  0
 40 38  1  0  0  0  0
 44 43  1  0  0  0  0
 45 40  1  0  0  0  0
 47 44  1  0  0  0  0
 46 45  1  0  0  0  0
 48 46  1  0  0  0  0
 47 46  1  0  0  0  0
 49 48  1  0  0  0  0
 50 47  1  0  0  0  0
 51 50  1  0  0  0  0
 52 49  1  0  0  0  0
 51 49  1  0  0  0  0
 54 52  1  0  0  0  0
 53 51  1  0  0  0  0
 55 53  1  0  0  0  0
 57 55  1  0  0  0  0
 57 56  1  0  0  0  0
 58 54  1  0  0  0  0
 56 54  1  0  0  0  0
 59 58  1  0  0  0  0
 60 56  1  0  0  0  0
 61 60  1  0  0  0  0
 62 59  1  0  0  0  0
 61 59  1  0  0  0  0
 63 62  1  0  0  0  0
 64 61  1  0  0  0  0
 65 64  1  0  0  0  0
 66 65  1  0  0  0  0
 67 63  1  0  0  0  0
 66 63  1  0  0  0  0
 68 67  1  0  0  0  0
 69 66  1  0  0  0  0
 70 68  1  0  0  0  0
 70 69  1  0  0  0  0
 70 71  1  1  0  0  0
 72 70  1  0  0  0  0
 73 71  1  0  0  0  0
 74 72  1  0  0  0  0
 74 73  1  0  0  0  0
  8 75  1  6  0  0  0
 40 76  1  6  0  0  0
 46 77  1  6  0  0  0
 49 78  1  6  0  0  0
 54 79  1  6  0  0  0
 59 80  1  6  0  0  0
 55 81  1  6  0  0  0
 67 82  1  6  0  0  0
 65 83  1  6  0  0  0
  7 84  1  1  0  0  0
 38 85  1  1  0  0  0
 51 86  1  1  0  0  0
 56 87  1  1  0  0  0
 61 88  1  1  0  0  0
 66 89  1  1  0  0  0
 64 90  1  1  0  0  0
 68 91  1  1  0  0  0
 44 92  1  1  0  0  0
 47 93  1  1  0  0  0
 63 94  1  6  0  0  0
 74 95  1  1  0  0  0
M  END
> <ID>
CHEBI:61279

> <NAME>
51-hydroxy ciguatoxin CTX3C

$$$$

Marvin  04251211542D          

 19 20  0  0  0  0            999 V2000
    9.4416   -8.0462    0.0000 C   0  0  0  0  0  0  0  0  0  0  0  0
    9.4416   -8.8712    0.0000 C   0  0  0  0  0  0  0  0  0  0  0  0
    8.7271   -7.6337    0.0000 C   0  0  0  0  0  0  0  0  0  0  0  0
    8.7271   -9.2837    0.0000 C   0  0  0  0  0  0  0  0  0  0  0  0
    8.0126   -8.0462    0.0000 C   0  0  0  0  0  0  0  0  0  0  0  0
    8.0126   -8.8712    0.0000 C   0  0  0  0  0  0  0  0  0  0  0  0
   10.8705   -8.0462    0.0000 C   0  0  0  0  0  0  0  0  0  0  0  0
   11.5850   -7.6337    0.0000 C   0  0  0  0  0  0  0  0  0  0  0  0
   10.8706   -8.8713    0.0000 C   0  0  0  0  0  0  0  0  0  0  0  0
   12.2995   -8.0463    0.0000 C   0  0  0  0  0  0  0  0  0  0  0  0
   11.5850   -9.2837    0.0000 C   0  0  0  0  0  0  0  0  0  0  0  0
   12.2995   -8.8712    0.0000 C   0  0  0  0  0  0  0  0  0  0  0  0
    8.7271   -6.8087    0.0000 C   0  0  0  0  0  0  0  0  0  0  0  0
   11.5850   -6.8087    0.0000 C   0  0  0  0  0  0  0  0  0  0  0  0
    8.7271  -10.1087    0.0000 O   0  0  0  0  0  0  0  0  0  0  0  0
    7.2981   -9.2837    0.0000 O   0  0  0  0  0  0  0  0  0  0  0  0
   11.5850  -10.1087    0.0000 O   0  0  0  0  0  0  0  0  0  0  0  0
   13.0140   -9.2837    0.0000 O   0  0  0  0  0  0  0  0  0  0  0  0
   10.1561   -9.2837    0.0000 O   0  0  0  0  0  0  0  0  0  0  0  0
  2  1  1  0  0  0  0
  3  1  2  0  0  0  0
  4  2  2  0  0  0  0
  5  3  1  0  0  0  0
  6  4  1  0  0  0  0
  6  5  2  0  0  0  0
  8  7  1  0  0  0  0
  9  7  2  0  0  0  0
 10  8  2  0  0  0  0
 11  9  1  0  0  0  0
 12 10  1  0  0  0  0
 12 11  2  0  0  0  0
  3 13  1  0  0  0  0
  8 14  1  0  0  0  0
  4 15  1  0  0  0  0
  6 16  1  0  0  0  0
 11 17  1  0  0  0  0
 12 18  1  0  0  0  0
  2 19  1  0  0  0  0
  9 19  1  0  0  0  0
M  END
> <ID>
CHEBI:64415

> <NAME>
violaceol I

$$$$

Marvin  04251216072D          

 19 20  0  0  0  0            999 V2000
   10.4395   -6.6195    0.0000 C   0  0  0  0  0  0  0  0  0  0  0  0
   10.4395   -7.4445    0.0000 C   0  0  0  0  0  0  0  0  0  0  0  0
    9.7251   -6.2070    0.0000 C   0  0  0  0  0  0  0  0  0  0  0  0
    9.7251   -7.8569    0.0000 C   0  0  0  0  0  0  0  0  0  0  0  0
    9.0106   -6.6195    0.0000 C   0  0  0  0  0  0  0  0  0  0  0  0
    9.0106   -7.4445    0.0000 C   0  0  0  0  0  0  0  0  0  0  0  0
   11.8684   -6.6195    0.0000 C   0  0  0  0  0  0  0  0  0  0  0  0
   12.5829   -6.2070    0.0000 C   0  0  0  0  0  0  0  0  0  0  0  0
   11.8685   -7.4445    0.0000 C   0  0  0  0  0  0  0  0  0  0  0  0
   13.2973   -6.6196    0.0000 C   0  0  0  0  0  0  0  0  0  0  0  0
   12.5829   -7.8569    0.0000 C   0  0  0  0  0  0  0  0  0  0  0  0
   13.2973   -7.4445    0.0000 C   0  0  0  0  0  0  0  0  0  0  0  0
    9.7251   -5.3820    0.0000 C   0  0  0  0  0  0  0  0  0  0  0  0
    9.7251   -8.6819    0.0000 O   0  0  0  0  0  0  0  0  0  0  0  0
    8.2961   -7.8569    0.0000 O   0  0  0  0  0  0  0  0  0  0  0  0
   12.5829   -8.6819    0.0000 O   0  0  0  0  0  0  0  0  0  0  0  0
   11.1540   -7.8570    0.0000 O   0  0  0  0  0  0  0  0  0  0  0  0
   14.0118   -6.2071    0.0000 C   0  0  0  0  0  0  0  0  0  0  0  0
   11.1539   -6.2070    0.0000 O   0  0  0  0  0  0  0  0  0  0  0  0
  2  1  1  0  0  0  0
  3  1  2  0  0  0  0
  4  2  2  0  0  0  0
  5  3  1  0  0  0  0
  6  4  1  0  0  0  0
  6  5  2  0  0  0  0
  8  7  1  0  0  0  0
  9  7  2  0  0  0  0
 10  8  2  0  0  0  0
 11  9  1  0  0  0  0
 12 10  1  0  0  0  0
 12 11  2  0  0  0  0
  3 13  1  0  0  0  0
  4 14  1  0  0  0  0
  6 15  1  0  0  0  0
 11 16  1  0  0  0  0
  2 17  1  0  0  0  0
  9 17  1  0  0  0  0
 10 18  1  0  0  0  0
  7 19  1  0  0  0  0
M  END
> <ID>
CHEBI:64417

> <NAME>
violaceol II

$$$$

Marvin  06191217192D          

 14 15  0  0  0  0            999 V2000
    5.0383   -5.4528    0.0000 C   0  0  0  0  0  0  0  0  0  0  0  0
    5.0383   -4.6278    0.0000 C   0  0  0  0  0  0  0  0  0  0  0  0
    4.3237   -5.8653    0.0000 C   0  0  0  0  0  0  0  0  0  0  0  0
    4.3237   -4.2153    0.0000 C   0  0  0  0  0  0  0  0  0  0  0  0
    3.6093   -5.4528    0.0000 C   0  0  0  0  0  0  0  0  0  0  0  0
    3.6093   -4.6278    0.0000 C   0  0  0  0  0  0  0  0  0  0  0  0
    5.8229   -5.7077    0.0000 C   0  0  0  0  0  0  0  0  0  0  0  0
    6.3078   -5.0403    0.0000 N   0  0  0  0  0  0  0  0  0  0  0  0
    5.8229   -4.3729    0.0000 C   0  0  0  0  0  0  0  0  0  0  0  0
    4.3237   -6.6903    0.0000 O   0  0  0  0  0  0  0  0  0  0  0  0
    2.8948   -4.2153    0.0000 O   0  0  0  0  0  0  0  0  0  0  0  0
    6.0780   -3.5883    0.0000 O   0  0  0  0  0  0  0  0  0  0  0  0
    3.5783   -7.0482    0.0000 C   0  0  0  0  0  0  0  0  0  0  0  0
    2.8948   -5.8653    0.0000 C   0  0  0  0  0  0  0  0  0  0  0  0
  3  1  2  0  0  0  0
  4  2  2  0  0  0  0
  5  3  1  0  0  0  0
  6  4  1  0  0  0  0
  6  5  2  0  0  0  0
  7  1  1  0  0  0  0
  2  1  1  0  0  0  0
  8  7  1  0  0  0  0
  9  2  1  0  0  0  0
  9  8  1  0  0  0  0
  3 10  1  0  0  0  0
  6 11  1  0  0  0  0
  9 12  2  0  0  0  0
 10 13  1  0  0  0  0
  5 14  1  0  0  0  0
M  END
> <ID>
CHEBI:64977

> <NAME>
cichorine

$$$$

Marvin  02221314022D          

 24 28  0  0  0  0            999 V2000
    7.4671   -6.4885    0.0000 C   0  0  1  0  0  0  0  0  0  0  0  0
    6.7509   -6.9008    0.0000 C   0  0  2  0  0  0  0  0  0  0  0  0
    8.0793   -7.0423    0.0000 C   0  0  0  0  0  0  0  0  0  0  0  0
    6.9174   -7.7087    0.0000 O   0  0  0  0  0  0  0  0  0  0  0  0
    7.7379   -7.7962    0.0000 C   0  0  0  0  0  0  0  0  0  0  0  0
    6.0345   -6.4843    0.0000 C   0  0  0  0  0  0  0  0  0  0  0  0
    6.0387   -5.6597    0.0000 C   0  0  0  0  0  0  0  0  0  0  0  0
    8.8956   -6.9633    0.0000 C   0  0  0  0  0  0  0  0  0  0  0  0
    8.2168   -8.4625    0.0000 C   0  0  0  0  0  0  0  0  0  0  0  0
    7.4671   -5.6597    0.0000 C   0  0  0  0  0  0  0  0  0  0  0  0
    6.7509   -5.2432    0.0000 O   0  0  0  0  0  0  0  0  0  0  0  0
    9.3787   -7.6295    0.0000 C   0  0  0  0  0  0  0  0  0  0  0  0
    9.0414   -8.3792    0.0000 C   0  0  0  0  0  0  0  0  0  0  0  0
    5.3224   -6.9008    0.0000 C   0  0  0  0  0  0  0  0  0  0  0  0
    5.3224   -5.2474    0.0000 C   0  0  0  0  0  0  0  0  0  0  0  0
   10.1992   -7.7129    0.0000 O   0  0  0  0  0  0  0  0  0  0  0  0
    9.6535   -8.9331    0.0000 O   0  0  0  0  0  0  0  0  0  0  0  0
   10.3699   -8.5208    0.0000 C   0  0  0  0  0  0  0  0  0  0  0  0
    8.1793   -6.0720    0.0000 O   0  0  0  0  0  0  0  0  0  0  0  0
    4.6102   -5.6597    0.0000 C   0  0  0  0  0  0  0  0  0  0  0  0
    4.6102   -6.4885    0.0000 C   0  0  0  0  0  0  0  0  0  0  0  0
    3.8981   -5.2516    0.0000 O   0  0  0  0  0  0  0  0  0  0  0  0
    3.8981   -4.4270    0.0000 C   0  0  0  0  0  0  0  0  0  0  0  0
    6.0345   -7.3089    0.0000 H   0  0  0  0  0  0  0  0  0  0  0  0
  2  1  1  0  0  0  0
  3  1  1  0  0  0  0
  4  2  1  0  0  0  0
  5  3  2  0  0  0  0
  6  2  1  0  0  0  0
  7  6  1  0  0  0  0
  8  3  1  0  0  0  0
  9  5  1  0  0  0  0
 10  1  1  0  0  0  0
 11 10  1  0  0  0  0
 12  8  2  0  0  0  0
 13 12  1  0  0  0  0
 14  6  2  0  0  0  0
 15  7  2  0  0  0  0
 16 12  1  0  0  0  0
 17 13  1  0  0  0  0
 18 16  1  0  0  0  0
  1 19  1  1  0  0  0
 20 21  2  0  0  0  0
 21 14  1  0  0  0  0
 22 20  1  0  0  0  0
 23 22  1  0  0  0  0
  2 24  1  1  0  0  0
 11  7  1  0  0  0  0
  5  4  1  0  0  0  0
 13  9  2  0  0  0  0
 20 15  1  0  0  0  0
 18 17  1  0  0  0  0
M  END
> <ID>
CHEBI:67347

> <NAME>
(+)-pisatin

$$$$

Mrv0541 10091316122D          

 25 27  0  0  0  0            999 V2000
   12.3750   -8.6417    0.0000 C   0  0  0  0  0  0  0  0  0  0  0  0
   12.3708   -7.8125    0.0000 C   0  0  0  0  0  0  0  0  0  0  0  0
   11.6625   -9.0542    0.0000 C   0  0  0  0  0  0  0  0  0  0  0  0
   10.9500   -8.6417    0.0000 C   0  0  0  0  0  0  0  0  0  0  0  0
   11.6500   -7.4042    0.0000 C   0  0  0  0  0  0  0  0  0  0  0  0
   10.9417   -7.8208    0.0000 C   0  0  0  0  0  0  0  0  0  0  0  0
   13.0833   -7.3958    0.0000 C   0  0  0  0  0  0  0  0  0  0  0  0
   10.2375   -9.0583    0.0000 C   0  0  0  0  0  0  0  0  0  0  0  0
   13.0917   -9.0500    0.0000 O   0  0  0  0  0  0  0  0  0  0  0  0
   13.0750   -6.5750    0.0000 C   0  0  0  0  0  0  0  0  0  0  0  0
   13.7958   -7.8083    0.0000 C   0  0  0  0  0  0  0  0  0  0  0  0
   10.2375   -9.8875    0.0000 C   0  0  0  0  0  0  0  0  0  0  0  0
    9.5208   -8.6458    0.0000 C   0  0  0  0  0  0  0  0  0  0  0  0
   11.6625   -9.8792    0.0000 O   0  0  0  0  0  0  0  0  0  0  0  0
   11.6458   -6.5792    0.0000 O   0  0  0  0  0  0  0  0  0  0  0  0
    8.8083   -9.8875    0.0000 C   0  0  0  0  0  0  0  0  0  0  0  0
   14.5042   -6.5667    0.0000 C   0  0  0  0  0  0  0  0  0  0  0  0
    8.8083   -9.0583    0.0000 C   0  0  0  0  0  0  0  0  0  0  0  0
   14.5083   -7.3917    0.0000 C   0  0  0  0  0  0  0  0  0  0  0  0
    9.5208  -10.3000    0.0000 C   0  0  0  0  0  0  0  0  0  0  0  0
   13.7833   -6.1583    0.0000 C   0  0  0  0  0  0  0  0  0  0  0  0
    8.0917  -10.3000    0.0000 O   0  0  0  0  0  0  0  0  0  0  0  0
   15.2167   -6.1500    0.0000 O   0  0  0  0  0  0  0  0  0  0  0  0
   12.3792  -10.2917    0.0000 C   0  0  0  0  0  0  0  0  0  0  0  0
   10.9292   -6.1708    0.0000 C   0  0  0  0  0  0  0  0  0  0  0  0
  2  1  2  0  0  0  0
  3  1  1  0  0  0  0
  4  3  2  0  0  0  0
  5  2  1  0  0  0  0
  6  5  2  0  0  0  0
  7  2  1  0  0  0  0
  8  4  1  0  0  0  0
  9  1  1  0  0  0  0
 10  7  1  0  0  0  0
 11  7  2  0  0  0  0
 12  8  1  0  0  0  0
 13  8  2  0  0  0  0
 14  3  1  0  0  0  0
 15  5  1  0  0  0  0
 16 18  2  0  0  0  0
 17 21  1  0  0  0  0
 18 13  1  0  0  0  0
 19 11  1  0  0  0  0
 20 12  2  0  0  0  0
 21 10  2  0  0  0  0
 22 16  1  0  0  0  0
 23 17  1  0  0  0  0
 24 14  1  0  0  0  0
 25 15  1  0  0  0  0
  4  6  1  0  0  0  0
 17 19  2  0  0  0  0
 20 16  1  0  0  0  0
M  END
> <ID>
CHEBI:67537

> <NAME>
terphenyllin

$$$$

Marvin  09041309072D          

 97109  0  0  0  0            999 V2000
   16.5732   -9.7478    0.0000 C   0  0  2  0  0  0  0  0  0  0  0  0
   17.0594  -10.4195    0.0000 C   0  0  0  0  0  0  0  0  0  0  0  0
   17.8466  -10.1616    0.0000 C   0  0  0  0  0  0  0  0  0  0  0  0
   17.8466   -9.3339    0.0000 C   0  0  0  0  0  0  0  0  0  0  0  0
   17.0595   -9.0802    0.0000 O   0  0  0  0  0  0  0  0  0  0  0  0
   -0.3929  -15.8143    0.0000 C   0  0  0  0  0  0  0  0  0  0  0  0
    0.2612  -15.3042    0.0000 C   0  0  0  0  0  0  0  0  0  0  0  0
   -0.3929  -16.6392    0.0000 C   0  0  0  0  0  0  0  0  0  0  0  0
    0.2494  -17.1589    0.0000 C   0  0  1  0  0  0  0  0  0  0  0  0
    1.0536  -16.9812    0.0000 O   0  0  0  0  0  0  0  0  0  0  0  0
    1.0656  -15.4949    0.0000 C   0  0  1  0  0  0  0  0  0  0  0  0
    1.4134  -16.2440    0.0000 C   0  0  1  0  0  0  0  0  0  0  0  0
    2.2399  -16.3097    0.0000 C   0  0  2  0  0  0  0  0  0  0  0  0
    1.5300  -14.8148    0.0000 O   0  0  0  0  0  0  0  0  0  0  0  0
    2.3564  -14.8780    0.0000 C   0  0  1  0  0  0  0  0  0  0  0  0
    2.7130  -15.6271    0.0000 C   0  0  1  0  0  0  0  0  0  0  0  0
    3.5395  -15.6868    0.0000 O   0  0  0  0  0  0  0  0  0  0  0  0
    2.8221  -14.1880    0.0000 C   0  0  0  0  0  0  0  0  0  0  0  0
    4.0081  -15.0003    0.0000 C   0  0  1  0  0  0  0  0  0  0  0  0
    3.6614  -14.2395    0.0000 C   0  0  1  0  0  0  0  0  0  0  0  0
    4.0542  -13.4669    0.0000 O   0  0  0  0  0  0  0  0  0  0  0  0
    4.8047  -15.1961    0.0000 C   0  0  0  0  0  0  0  0  0  0  0  0
    5.4563  -14.6993    0.0000 C   0  0  0  0  0  0  0  0  0  0  0  0
    5.0804  -12.4524    0.0000 C   0  0  0  0  0  0  0  0  0  0  0  0
    5.8366  -12.0194    0.0000 C   0  0  0  0  0  0  0  0  0  0  0  0
    4.9076  -13.2917    0.0000 C   0  0  2  0  0  0  0  0  0  0  0  0
    5.4930  -13.8813    0.0000 C   0  0  1  0  0  0  0  0  0  0  0  0
    6.3119  -13.8249    0.0000 O   0  0  0  0  0  0  0  0  0  0  0  0
    7.1165  -11.6551    0.0000 O   0  0  0  0  0  0  0  0  0  0  0  0
    6.6426  -12.3645    0.0000 C   0  0  2  0  0  0  0  0  0  0  0  0
    6.8057  -13.1757    0.0000 C   0  0  1  0  0  0  0  0  0  0  0  0
    7.4138  -13.7242    0.0000 C   0  0  0  0  0  0  0  0  0  0  0  0
    8.2305  -13.7706    0.0000 C   0  0  0  0  0  0  0  0  0  0  0  0
    9.0750  -12.4843    0.0000 C   0  0  0  0  0  0  0  0  0  0  0  0
    8.8860  -13.2815    0.0000 C   0  0  0  0  0  0  0  0  0  0  0  0
    8.6982  -11.7546    0.0000 C   0  0  1  0  0  0  0  0  0  0  0  0
    7.9353  -11.4212    0.0000 C   0  0  1  0  0  0  0  0  0  0  0  0
    7.7336  -10.6209    0.0000 C   0  0  0  0  0  0  0  0  0  0  0  0
    9.4271  -11.3806    0.0000 O   0  0  0  0  0  0  0  0  0  0  0  0
    8.2379   -9.9599    0.0000 C   0  0  2  0  0  0  0  0  0  0  0  0
    9.0612   -9.9599    0.0000 C   0  0  1  0  0  0  0  0  0  0  0  0
    9.5880  -10.5795    0.0000 C   0  0  1  0  0  0  0  0  0  0  0  0
   10.3983  -10.4307    0.0000 C   0  0  0  0  0  0  0  0  0  0  0  0
    9.3336   -9.1783    0.0000 O   0  0  0  0  0  0  0  0  0  0  0  0
   10.1998   -8.2153    0.0000 C   0  0  0  0  0  0  0  0  0  0  0  0
   10.8243   -7.6823    0.0000 C   0  0  1  0  0  0  0  0  0  0  0  0
   11.6426   -7.7535    0.0000 C   0  0  0  0  0  0  0  0  0  0  0  0
   10.1408   -9.0343    0.0000 C   0  0  2  0  0  0  0  0  0  0  0  0
   10.6697   -9.6601    0.0000 C   0  0  1  0  0  0  0  0  0  0  0  0
   11.4820   -9.7280    0.0000 O   0  0  0  0  0  0  0  0  0  0  0  0
   12.1703   -8.3808    0.0000 C   0  0  1  0  0  0  0  0  0  0  0  0
   12.1012   -9.1979    0.0000 C   0  0  1  0  0  0  0  0  0  0  0  0
   12.7752   -9.6655    0.0000 C   0  0  0  0  0  0  0  0  0  0  0  0
   12.9056   -8.0280    0.0000 O   0  0  0  0  0  0  0  0  0  0  0  0
   13.5269   -9.3024    0.0000 C   0  0  1  0  0  0  0  0  0  0  0  0
   13.5810   -8.4926    0.0000 C   0  0  1  0  0  0  0  0  0  0  0  0
   14.2548   -8.0267    0.0000 C   0  0  2  0  0  0  0  0  0  0  0  0
   14.1064   -9.8819    0.0000 O   0  0  0  0  0  0  0  0  0  0  0  0
   15.0326   -8.2589    0.0000 C   0  0  1  0  0  0  0  0  0  0  0  0
   15.3396   -9.0391    0.0000 C   0  0  1  0  0  0  0  0  0  0  0  0
   14.9281   -9.7491    0.0000 C   0  0  1  0  0  0  0  0  0  0  0  0
   15.3387  -10.4617    0.0000 C   0  0  2  0  0  0  0  0  0  0  0  0
   16.1618  -10.4617    0.0000 C   0  0  2  0  0  0  0  0  0  0  0  0
   16.1623   -9.0391    0.0000 O   0  0  0  0  0  0  0  0  0  0  0  0
    0.7659  -14.7244    0.0000 H   0  0  0  0  0  0  0  0  0  0  0  0
    1.9960  -14.1358    0.0000 H   0  0  0  0  0  0  0  0  0  0  0  0
    3.2489  -13.5236    0.0000 H   0  0  0  0  0  0  0  0  0  0  0  0
    4.3237  -12.7078    0.0000 H   0  0  0  0  0  0  0  0  0  0  0  0
    6.4036  -11.5770    0.0000 H   0  0  0  0  0  0  0  0  0  0  0  0
    7.8663   -9.2319    0.0000 O   0  0  0  0  0  0  0  0  0  0  0  0
    7.2194  -11.0087    0.0000 H   0  0  0  0  0  0  0  0  0  0  0  0
    9.5250   -8.4806    0.0000 H   0  0  0  0  0  0  0  0  0  0  0  0
   12.3429   -7.5715    0.0000 H   0  0  0  0  0  0  0  0  0  0  0  0
   13.5810   -7.6677    0.0000 H   0  0  0  0  0  0  0  0  0  0  0  0
   14.1340   -7.2117    0.0000 C   0  0  0  0  0  0  0  0  0  0  0  0
   15.8044   -8.3578    0.0000 H   0  0  0  0  0  0  0  0  0  0  0  0
    1.8259  -16.9557    0.0000 H   0  0  0  0  0  0  0  0  0  0  0  0
    2.5956  -17.0520    0.0000 O   0  0  0  0  0  0  0  0  0  0  0  0
    3.0702  -16.3709    0.0000 H   0  0  0  0  0  0  0  0  0  0  0  0
    4.3002  -15.7721    0.0000 H   0  0  0  0  0  0  0  0  0  0  0  0
    6.0769  -14.4652    0.0000 H   0  0  0  0  0  0  0  0  0  0  0  0
    6.8813  -13.9994    0.0000 H   0  0  0  0  0  0  0  0  0  0  0  0
   10.5703   -6.8966    0.0000 C   0  0  0  0  0  0  0  0  0  0  0  0
    9.4838  -12.0047    0.0000 H   0  0  0  0  0  0  0  0  0  0  0  0
   10.1719  -11.1634    0.0000 H   0  0  0  0  0  0  0  0  0  0  0  0
   11.1184  -10.3521    0.0000 H   0  0  0  0  0  0  0  0  0  0  0  0
   12.1432  -10.0213    0.0000 H   0  0  0  0  0  0  0  0  0  0  0  0
   13.3885  -10.1274    0.0000 H   0  0  0  0  0  0  0  0  0  0  0  0
   14.5699  -10.4948    0.0000 H   0  0  0  0  0  0  0  0  0  0  0  0
   14.9259  -11.1781    0.0000 C   0  0  0  0  0  0  0  0  0  0  0  0
   16.5744  -11.1777    0.0000 C   0  0  0  0  0  0  0  0  0  0  0  0
   15.6165   -7.6791    0.0000 O   0  0  0  0  0  0  0  0  0  0  0  0
    8.6417  -10.6708    0.0000 C   0  0  0  0  0  0  0  0  0  0  0  0
    0.0602  -17.9620    0.0000 C   0  0  0  0  0  0  0  0  0  0  0  0
   -0.7298  -18.1996    0.0000 C   0  0  0  0  0  0  0  0  0  0  0  0
   -0.9190  -19.0026    0.0000 C   0  0  0  0  0  0  0  0  0  0  0  0
   -1.7090  -19.2403    0.0000 C   0  0  0  0  0  0  0  0  0  0  0  0
  1  5  1  1  0  0  0
  6  7  1  0  0  0  0
  7 11  1  0  0  0  0
  6  8  2  0  0  0  0
  8  9  1  0  0  0  0
 12 10  1  0  0  0  0
  9 10  1  0  0  0  0
 11 12  1  0  0  0  0
 11 14  1  0  0  0  0
 12 13  1  0  0  0  0
 13 16  1  0  0  0  0
 15 14  1  0  0  0  0
 15 16  1  0  0  0  0
 15 18  1  0  0  0  0
 16 17  1  0  0  0  0
 17 19  1  0  0  0  0
 20 18  1  0  0  0  0
 19 20  1  0  0  0  0
 20 21  1  0  0  0  0
 19 22  1  0  0  0  0
 21 26  1  0  0  0  0
 22 23  2  0  0  0  0
 23 27  1  0  0  0  0
 24 26  1  0  0  0  0
 26 27  1  0  0  0  0
 27 28  1  0  0  0  0
 28 31  1  0  0  0  0
 30 25  1  0  0  0  0
 29 37  1  0  0  0  0
 29 30  1  0  0  0  0
 30 31  1  0  0  0  0
 31 32  1  0  0  0  0
 32 33  1  0  0  0  0
 34 36  1  0  0  0  0
 34 35  1  0  0  0  0
 35 33  2  0  0  0  0
 36 37  1  0  0  0  0
 37 38  1  0  0  0  0
 36 39  1  0  0  0  0
 38 40  1  0  0  0  0
 39 42  1  0  0  0  0
 40 41  1  0  0  0  0
 41 42  1  0  0  0  0
 41 44  1  0  0  0  0
 42 43  1  0  0  0  0
 43 49  1  0  0  0  0
 48 44  1  0  0  0  0
 45 46  1  0  0  0  0
 46 47  1  0  0  0  0
 45 48  1  0  0  0  0
 48 49  1  0  0  0  0
 49 50  1  0  0  0  0
 50 52  1  0  0  0  0
 51 47  1  0  0  0  0
 51 52  1  0  0  0  0
 51 54  1  0  0  0  0
 52 53  1  0  0  0  0
 53 55  1  0  0  0  0
 56 54  1  0  0  0  0
 55 56  1  0  0  0  0
 56 57  1  0  0  0  0
 55 58  1  0  0  0  0
 57 59  1  0  0  0  0
 58 61  1  0  0  0  0
 59 60  1  0  0  0  0
 60 61  1  0  0  0  0
 60 64  1  0  0  0  0
 61 62  1  0  0  0  0
 62 63  1  0  0  0  0
 63  1  1  0  0  0  0
  1 64  1  0  0  0  0
 11 65  1  1  0  0  0
 15 66  1  1  0  0  0
 20 67  1  1  0  0  0
 26 68  1  1  0  0  0
 30 69  1  1  0  0  0
 40 70  1  1  0  0  0
 37 71  1  1  0  0  0
 48 72  1  1  0  0  0
 51 73  1  1  0  0  0
 56 74  1  1  0  0  0
 57 75  1  1  0  0  0
 60 76  1  1  0  0  0
 12 77  1  6  0  0  0
 13 78  1  6  0  0  0
 16 79  1  6  0  0  0
 19 80  1  6  0  0  0
 27 81  1  6  0  0  0
 31 82  1  6  0  0  0
 46 83  1  6  0  0  0
 36 84  1  6  0  0  0
 42 85  1  6  0  0  0
 49 86  1  6  0  0  0
 52 87  1  6  0  0  0
 55 88  1  6  0  0  0
 61 89  1  6  0  0  0
 62 90  1  6  0  0  0
 63 91  1  1  0  0  0
 59 92  1  6  0  0  0
 24 25  2  0  0  0  0
 41 93  1  1  0  0  0
  1  2  1  0  0  0  0
  9 94  1  1  0  0  0
  2  3  1  0  0  0  0
 94 95  2  0  0  0  0
  3  4  1  0  0  0  0
 95 96  1  0  0  0  0
  4  5  1  0  0  0  0
 96 97  2  0  0  0  0
M  END
> <ID>
CHEBI:68281

> <NAME>
ciguatoxin CTX4B

$$$$

Marvin  10261212162D          

 30 32  0  0  1  0            999 V2000
   29.7579  -22.4507    0.0000 C   0  0  1  0  0  0  0  0  0  0  0  0
   30.4724  -22.0382    0.0000 C   0  0  0  0  0  0  0  0  0  0  0  0
   29.0433  -22.0381    0.0000 C   0  0  0  0  0  0  0  0  0  0  0  0
   30.4723  -21.2131    0.0000 C   0  0  1  0  0  0  0  0  0  0  0  0
   29.0433  -21.2132    0.0000 C   0  0  2  0  0  0  0  0  0  0  0  0
   29.7578  -20.8006    0.0000 O   0  0  0  0  0  0  0  0  0  0  0  0
   29.7578  -23.2758    0.0000 O   0  0  0  0  0  0  0  0  0  0  0  0
   29.0432  -23.6882    0.0000 C   0  0  0  0  0  0  0  0  0  0  0  0
   28.3287  -23.2757    0.0000 O   0  0  0  0  0  0  0  0  0  0  0  0
   28.3288  -20.8007    0.0000 C   0  0  0  0  0  0  0  0  0  0  0  0
   27.6143  -21.2132    0.0000 C   0  0  0  0  0  0  0  0  0  0  0  0
   26.8998  -22.4507    0.0000 C   0  0  0  0  0  0  0  0  0  0  0  0
   27.6143  -23.6882    0.0000 C   0  0  0  0  0  0  0  0  0  0  0  0
   26.8998  -23.2757    0.0000 C   0  0  0  0  0  0  0  0  0  0  0  0
   26.8998  -20.8006    0.0000 C   0  0  1  0  0  0  0  0  0  0  0  0
   26.1853  -22.0381    0.0000 C   0  0  0  0  0  0  0  0  0  0  0  0
   26.1853  -21.2132    0.0000 C   0  0  0  0  0  0  0  0  0  0  0  0
   29.0430  -24.5132    0.0000 C   0  0  0  0  0  0  0  0  0  0  0  0
   27.6142  -24.5131    0.0000 C   0  0  0  0  0  0  0  0  0  0  0  0
   28.3286  -24.9256    0.0000 C   0  0  0  0  0  0  0  0  0  0  0  0
   31.2560  -20.9561    0.0000 C   0  0  2  0  0  0  0  0  0  0  0  0
   31.9241  -21.4401    0.0000 C   0  0  0  0  0  0  0  0  0  0  0  0
   31.5099  -20.1711    0.0000 N   0  0  0  0  0  0  0  0  0  0  0  0
   32.5909  -20.9543    0.0000 S   0  0  0  0  0  0  0  0  0  0  0  0
   32.3350  -20.1699    0.0000 C   0  0  0  0  0  0  0  0  0  0  0  0
   32.8191  -19.5019    0.0000 O   0  0  0  0  0  0  0  0  0  0  0  0
   28.3285  -25.7506    0.0000 C   0  0  0  0  0  0  0  0  0  0  0  0
   26.8998  -19.9756    0.0000 C   0  0  0  0  0  0  0  0  0  0  0  0
   30.4531  -20.3849    0.0000 O   0  0  0  0  0  0  0  0  0  0  0  0
   31.2822  -21.8299    0.0000 H   0  0  0  0  0  0  0  0  0  0  0  0
  2  1  1  0  0  0  0
  4  2  1  0  0  0  0
  6  4  1  0  0  0  0
  6  5  1  0  0  0  0
  1  7  1  6  0  0  0
  3  1  1  0  0  0  0
  8  7  1  0  0  0  0
  5  3  1  0  0  0  0
  5 10  1  1  0  0  0
 11 10  1  0  0  0  0
 14 12  2  0  0  0  0
 14 13  1  0  0  0  0
 15 11  1  0  0  0  0
 16 12  1  0  0  0  0
 17 15  1  0  0  0  0
 17 16  2  0  0  0  0
  8  9  2  0  0  0  0
 18  8  1  0  0  0  0
 19 13  1  0  0  0  0
 20 18  2  0  0  0  0
 20 19  1  0  0  0  0
 22 21  1  0  0  0  0
 23 21  1  0  0  0  0
 24 22  1  0  0  0  0
 25 23  1  0  0  0  0
 25 24  1  0  0  0  0
  4 21  1  0  0  0  0
 25 26  2  0  0  0  0
 20 27  1  0  0  0  0
 15 28  1  1  0  0  0
  4 29  1  6  0  0  0
 21 30  1  6  0  0  0
M  END
> <ID>
CHEBI:69136

> <NAME>
latrunculin A

$$$$

Ketcher 09281511492D 1   1.00000     0.00000     0

 31 34  0     1  0            999 V2000
    7.2943  -17.7839    0.0000 C   0  0  0  0  0  0  0  0  0  0  0  0
    7.2943  -18.7782    0.0000 N   0  0  0  0  0  0  0  0  0  0  0  0
    6.4331  -17.2868    0.0000 C   0  0  0  0  0  0  0  0  0  0  0  0
    6.4331  -19.2754    0.0000 C   0  0  0  0  0  0  0  0  0  0  0  0
    5.5720  -17.7839    0.0000 C   0  0  0  0  0  0  0  0  0  0  0  0
    5.5720  -18.7782    0.0000 C   0  0  0  0  0  0  0  0  0  0  0  0
    8.1553  -17.2868    0.0000 C   0  0  0  0  0  0  0  0  0  0  0  0
    9.0164  -17.7840    0.0000 C   0  0  0  0  0  0  0  0  0  0  0  0
    8.1553  -19.2753    0.0000 C   0  0  0  0  0  0  0  0  0  0  0  0
    9.0164  -18.7782    0.0000 N   0  0  0  0  0  0  0  0  0  0  0  0
    9.0156  -16.7966    0.0000 C   0  0  0  0  0  0  0  0  0  0  0  0
    9.8778  -16.3013    0.0000 C   0  0  0  0  0  0  0  0  0  0  0  0
   10.7377  -16.8003    0.0000 N   0  0  0  0  0  0  0  0  0  0  0  0
    9.8800  -15.3073    0.0000 C   0  0  0  0  0  0  0  0  0  0  0  0
   10.7421  -14.8121    0.0000 C   0  0  0  0  0  0  0  0  0  0  0  0
   11.5996  -16.3052    0.0000 C   0  0  0  0  0  0  0  0  0  0  0  0
   11.6019  -15.3111    0.0000 N   0  0  0  0  0  0  0  0  0  0  0  0
   10.7444  -13.8178    0.0000 O   0  0  0  0  0  0  0  0  0  0  0  0
   12.4596  -16.8043    0.0000 O   0  0  0  0  0  0  0  0  0  0  0  0
    8.1583  -16.2924    0.0000 O   0  0  0  0  0  0  0  0  0  0  0  0
    7.2957  -16.7956    0.0000 H   0  0  0  0  0  0  0  0  0  0  0  0
    6.4331  -18.2811    0.0000 H   0  0  0  0  0  0  0  0  0  0  0  0
    4.7081  -19.2754    0.0000 C   0  0  0  0  0  0  0  0  0  0  0  0
    6.7957  -20.3079    0.0000 C   0  0  0  0  0  0  0  0  0  0  0  0
    7.7902  -20.3087    0.0000 N   0  0  0  0  0  0  0  0  0  0  0  0
    4.7081  -17.2987    0.0000 O   0  0  0  0  0  0  0  0  0  0  0  0
    4.7081  -16.3044    0.0000 S   0  0  0  0  0  0  0  0  0  0  0  0
    5.5706  -15.8013    0.0000 O   0  0  0  0  0  0  0  0  0  0  0  0
    3.7137  -16.3067    0.0000 O   0  0  0  0  0  0  0  0  0  0  0  0
    4.2090  -15.4444    0.0000 O   0  0  0  0  0  0  0  0  0  0  0  0
    9.9791  -18.0415    0.0000 H   0  0  0  0  0  0  0  0  0  0  0  0
  3  1  1  0     0  0
  4  2  1  0     0  0
  5  3  1  0     0  0
  6  4  1  0     0  0
  6  5  1  0     0  0
  7  1  1  0     0  0
  2  1  1  0     0  0
  8  7  1  0     0  0
  9  2  1  0     0  0
 10  9  1  0     0  0
 11  8  1  0     0  0
 10  8  1  0     0  0
 12 11  1  0     0  0
 14 12  2  0     0  0
 13 12  1  0     0  0
 15 14  1  0     0  0
 16 13  1  0     0  0
 17 15  1  0     0  0
 17 16  1  0     0  0
 15 18  2  0     0  0
 16 19  2  0     0  0
 11 20  1  1     0  0
  1 21  1  1     0  0
  4 22  1  1     0  0
  6 23  1  1     0  0
 24  4  1  0     0  0
 25 24  1  0     0  0
 25  9  2  0     0  0
  5 26  1  1     0  0
 26 27  1  0     0  0
 27 28  1  0     0  0
 29 27  2  0     0  0
 30 27  2  0     0  0
  8 31  1  1     0  0
M  CHG  2  25   1  28  -1
M  END
> <ID>
CHEBI:88044

> <NAME>
cylindrospermopsin zwitterion

$$$$

Ketcher 01041718582D 1   1.00000     0.00000     0

 24 26  0     0  0            999 V2000
   22.3140   -7.7079    0.0000 C   0  0  0  0  0  0  0  0  0  0  0  0
   22.3140   -8.7075    0.0000 C   0  0  0  0  0  0  0  0  0  0  0  0
   21.4482   -7.2081    0.0000 C   0  0  0  0  0  0  0  0  0  0  0  0
   21.4482   -9.2073    0.0000 C   0  0  0  0  0  0  0  0  0  0  0  0
   20.5826   -7.7079    0.0000 C   0  0  0  0  0  0  0  0  0  0  0  0
   20.5826   -8.7075    0.0000 C   0  0  0  0  0  0  0  0  0  0  0  0
   19.6319   -7.3991    0.0000 O   0  0  0  0  0  0  0  0  0  0  0  0
   19.0443   -8.2077    0.0000 C   0  0  0  0  0  0  0  0  0  0  0  0
   19.6318   -9.0164    0.0000 O   0  0  0  0  0  0  0  0  0  0  0  0
   23.1796   -7.2082    0.0000 O   0  0  0  0  0  0  0  0  0  0  0  0
   24.0453   -7.7080    0.0000 C   0  0  0  0  0  0  0  0  0  0  0  0
   23.1796   -9.2073    0.0000 C   0  0  0  0  0  0  0  0  0  0  0  0
   24.0452   -8.7076    0.0000 C   0  0  0  0  0  0  0  0  0  0  0  0
   24.9109   -9.2074    0.0000 C   0  0  0  0  0  0  0  0  0  0  0  0
   25.7766   -8.7077    0.0000 C   0  0  0  0  0  0  0  0  0  0  0  0
   24.9109  -10.2071    0.0000 C   0  0  0  0  0  0  0  0  0  0  0  0
   26.6423   -9.2076    0.0000 C   0  0  0  0  0  0  0  0  0  0  0  0
   25.7765  -10.7069    0.0000 C   0  0  0  0  0  0  0  0  0  0  0  0
   26.6422  -10.2072    0.0000 C   0  0  0  0  0  0  0  0  0  0  0  0
   23.1796  -10.2068    0.0000 O   0  0  0  0  0  0  0  0  0  0  0  0
   24.0452  -10.7066    0.0000 O   0  0  0  0  0  0  0  0  0  0  0  0
   21.4497  -10.2130    0.0000 O   0  0  0  0  0  0  0  0  0  0  0  0
   20.5826  -10.7188    0.0000 C   0  0  0  0  0  0  0  0  0  0  0  0
   23.1796   -6.2082    0.0000 C   0  0  0  0  0  0  0  0  0  0  0  0
  3  1  2  0     0  0
  4  2  2  0     0  0
  5  3  1  0     0  0
  6  4  1  0     0  0
  6  5  2  0     0  0
  7  5  1  0     0  0
  8  7  1  0     0  0
  9  6  1  0     0  0
  9  8  1  0     0  0
 10  1  1  0     0  0
  2  1  1  0     0  0
 12  2  1  0     0  0
 13 11  2  0     0  0
 15 14  1  0     0  0
 16 14  2  0     0  0
 17 15  2  0     0  0
 18 16  1  0     0  0
 19 17  1  0     0  0
 19 18  2  0     0  0
 20 12  2  0     0  0
 13 12  1  0     0  0
 14 13  1  0     0  0
 16 21  1  0     0  0
  4 22  1  0     0  0
 22 23  1  0     0  0
 10 24  1  0     0  0
M  END
> <ID>
CHEBI:131631

> <NAME>
biliatresone

$$$$

Ketcher 02281708292D 1   1.00000     0.00000     0

 11 11  0     1  0            999 V2000
   15.8349  -10.2784    0.0000 C   0  0  0  0  0  0  0  0  0  0  0  0
   14.8383  -10.2784    0.0000 C   0  0  0  0  0  0  0  0  0  0  0  0
   16.7022   -9.7863    0.0000 C   0  0  0  0  0  0  0  0  0  0  0  0
   15.3428  -11.1457    0.0000 C   0  0  0  0  0  0  0  0  0  0  0  0
   13.9751   -9.7696    0.0000 C   0  0  0  0  0  0  0  0  0  0  0  0
   17.5696  -10.2824    0.0000 C   0  0  0  0  0  0  0  0  0  0  0  0
   18.4370   -9.7904    0.0000 C   0  0  0  0  0  0  0  0  0  0  0  0
   17.5738  -11.2874    0.0000 N   0  0  0  0  0  0  0  0  0  0  0  0
   19.3044  -10.2908    0.0000 O   0  0  0  0  0  0  0  0  0  0  0  0
   18.4412   -8.7896    0.0000 O   0  0  0  0  0  0  0  0  0  0  0  0
   15.8349   -9.2784    0.0000 H   0  0  0  0  0  0  0  0  0  0  0  0
  1  2  1  0     0  0
  1  3  1  0     0  0
  1  4  1  0     0  0
  2  5  2  0     0  0
  3  6  1  0     0  0
  6  7  1  0     0  0
  6  8  1  1     0  0
  7  9  1  0     0  0
  7 10  2  0     0  0
  2  4  1  0     0  0
  1 11  1  4     0  0
M  END
> <ID>
CHEBI:134622

> <NAME>
hypoglycin A

$$$$

Ketcher 02281712022D 1   1.00000     0.00000     0

 20 20  0     1  0            999 V2000
    5.6651  -27.7726    0.0000 C   0  0  0  0  0  0  0  0  0  0  0  0
    5.6651  -28.7711    0.0000 O   0  0  0  0  0  0  0  0  0  0  0  0
    6.5297  -27.2733    0.0000 C   0  0  0  0  0  0  0  0  0  0  0  0
    4.8005  -27.2733    0.0000 O   0  0  0  0  0  0  0  0  0  0  0  0
    7.3944  -27.7726    0.0000 N   0  0  0  0  0  0  0  0  0  0  0  0
    6.5297  -26.2749    0.0000 C   0  0  0  0  0  0  0  0  0  0  0  0
    7.3944  -25.7757    0.0000 C   0  0  0  0  0  0  0  0  0  0  0  0
    7.3944  -24.7773    0.0000 C   0  0  0  0  0  0  0  0  0  0  0  0
    8.2591  -24.2780    0.0000 O   0  0  0  0  0  0  0  0  0  0  0  0
    6.5297  -24.2780    0.0000 N   0  0  0  0  0  0  0  0  0  0  0  0
    4.7887  -23.2678    0.0000 C   0  0  0  0  0  0  0  0  0  0  0  0
    3.7908  -23.2678    0.0000 C   0  0  0  0  0  0  0  0  0  0  0  0
    5.6570  -22.7750    0.0000 C   0  0  0  0  0  0  0  0  0  0  0  0
    4.2959  -24.1362    0.0000 C   0  0  0  0  0  0  0  0  0  0  0  0
    2.9265  -22.7584    0.0000 C   0  0  0  0  0  0  0  0  0  0  0  0
    6.5255  -23.2718    0.0000 C   0  0  0  0  0  0  0  0  0  0  0  0
    7.3940  -22.7792    0.0000 C   0  0  0  0  0  0  0  0  0  0  0  0
    8.2625  -23.2802    0.0000 O   0  0  0  0  0  0  0  0  0  0  0  0
    7.3982  -21.7771    0.0000 O   0  0  0  0  0  0  0  0  0  0  0  0
    4.7887  -22.2665    0.0000 H   0  0  0  0  0  0  0  0  0  0  0  0
  2  1  2  0     0  0
  3  1  1  0     0  0
  4  1  1  0     0  0
  3  5  1  6     0  0
  6  3  1  0     0  0
  7  6  1  0     0  0
  8  7  1  0     0  0
  8  9  2  0     0  0
  8 10  1  0     0  0
 11 12  1  0     0  0
 11 13  1  0     0  0
 11 14  1  0     0  0
 12 15  2  0     0  0
 13 16  1  0     0  0
 16 17  1  0     0  0
 16 10  1  1     0  0
 17 18  1  0     0  0
 17 19  2  0     0  0
 12 14  1  0     0  0
 11 20  1  4     0  0
M  END
> <ID>
CHEBI:136292

> <NAME>
hypoglycin B

$$$$

Ketcher 09201811582D 1   1.00000     0.00000     0

 18 19  0     1  0            999 V2000
   15.9097  -15.7992    0.0000 C   0  0  0  0  0  0  0  0  0  0  0  0
   15.0432  -15.2991    0.0000 C   0  0  0  0  0  0  0  0  0  0  0  0
   14.1771  -15.7992    0.0000 C   0  0  0  0  0  0  0  0  0  0  0  0
   15.9097  -16.7995    0.0000 C   0  0  0  0  0  0  0  0  0  0  0  0
   15.0432  -17.2997    0.0000 C   0  0  0  0  0  0  0  0  0  0  0  0
   13.3107  -18.3000    0.0000 C   0  0  0  0  0  0  0  0  0  0  0  0
   12.4445  -18.8002    0.0000 C   0  0  0  0  0  0  0  0  0  0  0  0
   11.5781  -18.3000    0.0000 C   0  0  0  0  0  0  0  0  0  0  0  0
   11.5781  -17.2997    0.0000 C   0  0  0  0  0  0  0  0  0  0  0  0
   13.3107  -17.2997    0.0000 C   0  0  0  0  0  0  0  0  0  0  0  0
   12.4445  -16.7995    0.0000 C   0  0  0  0  0  0  0  0  0  0  0  0
   16.7758  -15.2991    0.0000 C   0  0  0  0  0  0  0  0  0  0  0  0
   14.1771  -16.7995    0.0000 C   0  0  0  0  0  0  0  0  0  0  0  0
   14.1771  -17.7998    0.0000 H   0  0  0  0  0  0  0  0  0  0  0  0
   12.9472  -19.6629    0.0000 C   0  0  0  0  0  0  0  0  0  0  0  0
   11.9469  -19.6629    0.0000 C   0  0  0  0  0  0  0  0  0  0  0  0
   17.6423  -15.7992    0.0000 O   0  0  0  0  0  0  0  0  0  0  0  0
   16.7758  -14.2987    0.0000 O   0  0  0  0  0  0  0  0  0  0  0  0
  1 12  1  0     0  0
  1  2  2  0     0  0
 13 10  1  0     0  0
  3 13  1  0     0  0
  2  3  1  0     0  0
  4  1  1  0     0  0
  4  5  1  0     0  0
  5 13  1  0     0  0
 10  6  1  0     0  0
  6  7  1  0     0  0
  8  7  1  0     0  0
  8  9  1  0     0  0
 10 11  2  0     0  0
 13 14  1  1     0  0
 11  9  1  0     0  0
  7 15  1  0     0  0
  7 16  1  0     0  0
 12 17  1  0     0  0
 12 18  2  0     0  0
M  CHG  1  17  -1
M  END
> <ID>
CHEBI:141852

> <NAME>
zealexin A1(1-)

$$$$

  Ketcher 04041717022D 1   1.00000     0.00000     0

  0  0  0     0  0            999 V2000
M  END> <ID>
CHEBI:142279

> <NAME>
sesquiterpene phytoalexin

$$$$

Ketcher 04212010032D 1   1.00000     0.00000     0

 35 43  0     1  0            999 V2000
   13.0980  -13.4870    0.0000 C   0  0  0  0  0  0  0  0  0  0  0  0
   12.3492  -13.0547    0.0000 C   0  0  0  0  0  0  0  0  0  0  0  0
   11.6005  -13.4870    0.0000 C   0  0  0  0  0  0  0  0  0  0  0  0
   11.6005  -14.3516    0.0000 C   0  0  0  0  0  0  0  0  0  0  0  0
   12.3492  -14.7839    0.0000 C   0  0  0  0  0  0  0  0  0  0  0  0
   13.0980  -14.3516    0.0000 C   0  0  0  0  0  0  0  0  0  0  0  0
   10.9129  -12.9445    0.0000 O   0  0  0  0  0  0  0  0  0  0  0  0
   12.3492  -12.1901    0.0000 C   0  0  0  0  0  0  0  0  0  0  0  0
   13.0486  -11.6818    0.0000 S   0  0  0  0  0  0  0  0  0  0  0  0
   12.7814  -10.8596    0.0000 C   0  0  0  0  0  0  0  0  0  0  0  0
   11.9168  -10.8596    0.0000 C   0  0  0  0  0  0  0  0  0  0  0  0
   11.6497  -11.6819    0.0000 N   0  0  0  0  0  0  0  0  0  0  0  0
   11.4086  -10.1601    0.0000 C   0  0  0  0  0  0  0  0  0  0  0  0
   11.7603   -9.3703    0.0000 S   0  0  0  0  0  0  0  0  0  0  0  0
   11.1178   -8.7918    0.0000 C   0  0  0  0  0  0  0  0  0  0  0  0
   10.3690   -9.2241    0.0000 C   0  0  0  0  0  0  0  0  0  0  0  0
   10.5488  -10.0697    0.0000 N   0  0  0  0  0  0  0  0  0  0  0  0
    8.9645   -9.1511    0.0000 C   0  0  0  0  0  0  0  0  0  0  0  0
    6.9703  -11.5470    0.0000 S   0  0  0  0  0  0  0  0  0  0  0  0
    7.6702  -11.0394    0.0000 C   0  0  0  0  0  0  0  0  0  0  0  0
    7.2367  -12.3695    0.0000 C   0  0  0  0  0  0  0  0  0  0  0  0
    8.3692  -11.5482    0.0000 N   0  0  0  0  0  0  0  0  0  0  0  0
    8.1014  -12.3703    0.0000 C   0  0  0  0  0  0  0  0  0  0  0  0
    8.6091  -13.0701    0.0000 C   0  0  0  0  0  0  0  0  0  0  0  0
    8.2568  -13.8597    0.0000 O   0  0  0  0  0  0  0  0  0  0  0  0
    9.4690  -12.9804    0.0000 O   0  0  0  0  0  0  0  0  0  0  0  0
    7.7085  -13.1199    0.0000 C   0  0  0  0  0  0  0  0  0  0  0  0
    7.9928   -9.7985    0.0000 C   0  0  0  0  0  0  0  0  0  0  0  0
    7.1282   -9.7978    0.0000 C   0  0  0  0  0  0  0  0  0  0  0  0
    7.5612   -9.0494    0.0000 C   0  0  0  0  0  0  0  0  0  0  0  0
    9.2823   -9.8770    0.0000 O   0  0  0  0  0  0  0  0  0  0  0  0
    8.9926   -8.3597    0.0000 H   0  0  0  0  0  0  0  0  0  0  0  0
   12.3549  -10.1355    0.0000 H   0  0  0  0  0  0  0  0  0  0  0  0
   10.1670   -8.3834    0.0000 H   0  0  0  0  0  0  0  0  0  0  0  0
    9.8647  -11.5835    0.0000 Fe  0  0  0  0  0  0  0  0  0  0  0  0
  1  2  1  0     0  0
  2  3  2  0     0  0
  3  4  1  0     0  0
  4  5  2  0     0  0
  5  6  1  0     0  0
  6  1  2  0     0  0
  3  7  1  0     0  0
  2  8  1  0     0  0
  8  9  1  0     0  0
  9 10  1  0     0  0
 10 11  1  0     0  0
 11 12  1  0     0  0
 12  8  2  0     0  0
 11 13  1  0     0  0
 13 14  1  0     0  0
 14 15  1  0     0  0
 15 16  1  0     0  0
 16 17  1  0     0  0
 17 13  1  0     0  0
 16 18  1  0     0  0
 19 20  1  0     0  0
 19 21  1  0     0  0
 20 22  2  0     0  0
 21 23  1  0     0  0
 22 23  1  0     0  0
 23 24  1  0     0  0
 24 25  2  0     0  0
 24 26  1  0     0  0
 23 27  1  6     0  0
 20 28  1  0     0  0
 28 18  1  0     0  0
 28 29  1  0     0  0
 28 30  1  0     0  0
 18 31  1  6     0  0
 18 32  1  0     0  0
 11 33  1  6     0  0
 16 34  1  1     0  0
 22 35  1  0     0  0
 35 12  1  0     0  0
 35 17  1  0     0  0
 35 31  1  0     0  0
 35 26  1  0     0  0
 35  7  1  0     0  0
M  END
> <ID>
CHEBI:143131

> <NAME>
ferric yersiniabactin

$$$$

Ketcher 03011915072D 1   1.00000     0.00000     0

 19 21  0     1  0            999 V2000
   20.8462   -3.1635    0.0000 C   0  0  0  0  0  0  0  0  0  0  0  0
   21.7650   -3.4621    0.0000 C   0  0  0  0  0  0  0  0  0  0  0  0
   20.2785   -3.9450    0.0000 C   0  0  0  0  0  0  0  0  0  0  0  0
   21.7650   -4.4280    0.0000 C   0  0  0  0  0  0  0  0  0  0  0  0
   20.8464   -4.7265    0.0000 C   0  0  0  0  0  0  0  0  0  0  0  0
   20.5478   -2.2447    0.0000 C   0  0  0  0  0  0  0  0  0  0  0  0
   20.5479   -5.6453    0.0000 O   0  0  0  0  0  0  0  0  0  0  0  0
   22.5204   -2.8597    0.0000 C   0  0  0  0  0  0  0  0  0  0  0  0
   23.4621   -3.0747    0.0000 C   0  0  0  0  0  0  0  0  0  0  0  0
   22.5202   -5.0302    0.0000 C   0  0  0  0  0  0  0  0  0  0  0  0
   23.4621   -4.8153    0.0000 C   0  0  0  0  0  0  0  0  0  0  0  0
   23.8812   -3.9450    0.0000 C   0  0  0  0  0  0  0  0  0  0  0  0
   22.4801   -5.9337    0.0000 H   0  0  0  0  0  0  0  0  0  0  0  0
   24.3613   -5.1683    0.0000 C   0  0  0  0  0  0  0  0  0  0  0  0
   23.6060   -5.7706    0.0000 C   0  0  0  0  0  0  0  0  0  0  0  0
   21.7581   -2.4374    0.0000 C   0  0  0  0  0  0  0  0  0  0  0  0
   21.7581   -5.4633    0.0000 H   0  0  0  0  0  0  0  0  0  0  0  0
   22.5262   -4.1830    0.0000 C   0  0  0  0  0  0  0  0  0  0  0  0
   23.1276   -3.7640    0.0000 O   0  0  0  0  0  0  0  0  0  0  0  0
  2  1  1  0     0  0
  3  1  1  0     0  0
  5  3  1  0     0  0
  5  4  1  0     0  0
  1  6  1  6     0  0
  5  7  1  6     0  0
  8  2  1  0     0  0
  4  2  1  0     0  0
  9  8  1  0     0  0
 10  4  1  0     0  0
 12  9  1  0     0  0
 11 10  1  0     0  0
 12 11  1  0     0  0
 10 13  1  6     0  0
 14 11  1  0     0  0
 15 11  1  0     0  0
  2 16  1  1     0  0
  4 17  1  1     0  0
  1 18  1  0     0  0
 18 10  1  0     0  0
 18 19  1  6     0  0
M  END
> <ID>
CHEBI:143197

> <NAME>
culmorin

$$$$

  Ketcher 04041717022D 1   1.00000     0.00000     0

  0  0  0     0  0            999 V2000
M  END> <ID>
CHEBI:143889

> <NAME>
galactosaminogalactan

$$$$

Ketcher 07251915292D 1   1.00000     0.00000     0

  8  7  0     0  0            999 V2000
   -5.5191    1.3258    0.0000 C   0  0  0  0  0  0  0  0  0  0  0  0
   -4.6530    0.8258    0.0000 C   0  0  0  0  0  0  0  0  0  0  0  0
   -3.7870    1.3258    0.0000 C   0  0  0  0  0  0  0  0  0  0  0  0
   -2.9210    0.8258    0.0000 C   0  0  0  0  0  0  0  0  0  0  0  0
   -2.0549    1.3258    0.0000 C   0  0  0  0  0  0  0  0  0  0  0  0
   -1.1889    0.8258    0.0000 C   0  0  0  0  0  0  0  0  0  0  0  0
   -0.3229    1.3258    0.0000 C   0  0  0  0  0  0  0  0  0  0  0  0
   -0.3229    2.3258    0.0000 O   0  0  0  0  0  0  0  0  0  0  0  0
  1  2  1  0     0  0
  2  3  1  0     0  0
  3  4  1  0     0  0
  4  5  1  0     0  0
  5  6  2  0     0  0
  6  7  1  0     0  0
  7  8  2  0     0  0
M  END
> <ID>
CHEBI:143912

> <NAME>
(E)-hept-2-enal

$$$$

Ketcher 07231912362D 1   1.00000     0.00000     0

 21 23  0     1  0            999 V2000
   11.2460  -24.0476    0.0000 C   0  0  0  0  0  0  0  0  0  0  0  0
   11.2460  -25.0428    0.0000 C   0  0  0  0  0  0  0  0  0  0  0  0
   10.3840  -23.5500    0.0000 C   0  0  0  0  0  0  0  0  0  0  0  0
   10.3840  -25.5404    0.0000 C   0  0  0  0  0  0  0  0  0  0  0  0
    9.5221  -24.0476    0.0000 C   0  0  0  0  0  0  0  0  0  0  0  0
    9.5221  -25.0428    0.0000 C   0  0  0  0  0  0  0  0  0  0  0  0
   12.9698  -24.0476    0.0000 C   0  0  0  0  0  0  0  0  0  0  0  0
   12.9698  -25.0428    0.0000 O   0  0  0  0  0  0  0  0  0  0  0  0
   12.1079  -23.5500    0.0000 C   0  0  0  0  0  0  0  0  0  0  0  0
   12.1079  -25.5404    0.0000 C   0  0  0  0  0  0  0  0  0  0  0  0
   13.8318  -22.5547    0.0000 C   0  0  0  0  0  0  0  0  0  0  0  0
   13.8318  -23.5500    0.0000 C   0  0  0  0  0  0  0  0  0  0  0  0
   12.9698  -22.0571    0.0000 C   0  0  0  0  0  0  0  0  0  0  0  0
   12.1079  -22.5547    0.0000 C   0  0  0  0  0  0  0  0  0  0  0  0
   12.9698  -21.0619    0.0000 O   0  0  0  0  0  0  0  0  0  0  0  0
   14.6937  -22.0571    0.0000 O   0  0  0  0  0  0  0  0  0  0  0  0
   12.1079  -26.5357    0.0000 O   0  0  0  0  0  0  0  0  0  0  0  0
   10.3840  -26.5357    0.0000 O   0  0  0  0  0  0  0  0  0  0  0  0
    8.6602  -23.5500    0.0000 O   0  0  0  0  0  0  0  0  0  0  0  0
   13.9369  -24.5812    0.0000 C   0  0  0  0  0  0  0  0  0  0  0  0
    7.7983  -24.0476    0.0000 C   0  0  0  0  0  0  0  0  0  0  0  0
  3  1  1  0     0  0
  4  2  1  0     0  0
  5  3  2  0     0  0
  6  4  2  0     0  0
  6  5  1  0     0  0
  8  7  1  0     0  0
 10  8  1  0     0  0
  1  9  1  0     0  0
  2 10  1  0     0  0
  2  1  2  0     0  0
 12 11  1  0     0  0
 13 11  1  0     0  0
  7 12  1  0     0  0
 14 13  1  0     0  0
  9  7  1  0     0  0
  9 14  2  0     0  0
 13 15  1  1     0  0
 11 16  1  6     0  0
 10 17  2  0     0  0
  4 18  1  0     0  0
  5 19  1  0     0  0
  7 20  1  6     0  0
 19 21  1  0     0  0
M  END
> <ID>
CHEBI:144317

> <NAME>
altenuene

$$$$

Ketcher 10101913062D 1   1.00000     0.00000     0

 30 32  0     1  0            999 V2000
    6.5731  -15.3213    0.0000 C   0  0  0  0  0  0  0  0  0  0  0  0
    5.5552  -15.6515    0.0000 C   0  0  0  0  0  0  0  0  0  0  0  0
    4.9987  -16.2723    0.0000 C   0  0  0  0  0  0  0  0  0  0  0  0
    5.8970  -16.6021    0.0000 C   0  0  0  0  0  0  0  0  0  0  0  0
    6.9152  -16.2719    0.0000 C   0  0  0  0  0  0  0  0  0  0  0  0
    7.4721  -15.6515    0.0000 C   0  0  0  0  0  0  0  0  0  0  0  0
    7.8935  -16.6418    0.0000 C   0  0  0  0  0  0  0  0  0  0  0  0
    8.7923  -16.3117    0.0000 C   0  0  0  0  0  0  0  0  0  0  0  0
    9.3491  -15.6914    0.0000 C   0  0  0  0  0  0  0  0  0  0  0  0
    8.4503  -15.3612    0.0000 C   0  0  0  0  0  0  0  0  0  0  0  0
    9.2085  -15.2108    0.0000 C   0  0  0  0  0  0  0  0  0  0  0  0
    7.6339  -16.2926    0.0000 H   0  0  0  0  0  0  0  0  0  0  0  0
    6.5990  -13.2733    0.0000 C   0  0  0  0  0  0  0  0  0  0  0  0
    6.4645  -15.6960    0.0000 H   0  0  0  0  0  0  0  0  0  0  0  0
    7.1440  -14.9039    0.0000 C   0  0  0  0  0  0  0  0  0  0  0  0
    4.6564  -15.3213    0.0000 O   0  0  0  0  0  0  0  0  0  0  0  0
    5.3825  -17.3825    0.0000 O   0  0  0  0  0  0  0  0  0  0  0  0
    4.0677  -16.4958    0.0000 C   0  0  0  0  0  0  0  0  0  0  0  0
    3.2133  -16.0636    0.0000 O   0  0  0  0  0  0  0  0  0  0  0  0
    5.8955  -14.6466    0.0000 C   0  0  0  0  0  0  0  0  0  0  0  0
    5.6722  -12.9752    0.0000 C   0  0  0  0  0  0  0  0  0  0  0  0
    4.8036  -13.3366    0.0000 C   0  0  0  0  0  0  0  0  0  0  0  0
    3.8773  -13.0386    0.0000 C   0  0  0  0  0  0  0  0  0  0  0  0
    5.6646  -12.0971    0.0000 C   0  0  0  0  0  0  0  0  0  0  0  0
    4.9297  -14.3352    0.0000 C   0  0  0  0  0  0  0  0  0  0  0  0
    6.9526  -14.2661    0.0000 O   0  0  0  0  0  0  0  0  0  0  0  0
    7.3366  -12.8068    0.0000 H   0  0  0  0  0  0  0  0  0  0  0  0
    9.6644  -16.1077    0.0000 O   0  0  0  0  0  0  0  0  0  0  0  0
    8.7828  -17.0552    0.0000 C   0  0  0  0  0  0  0  0  0  0  0  0
    8.4477  -14.5410    0.0000 H   0  0  0  0  0  0  0  0  0  0  0  0
  1  2  1  0     0  0
  2  3  1  0     0  0
  3  4  1  0     0  0
  4  5  1  0     0  0
  5  6  1  0     0  0
  1  6  1  0     0  0
  7  8  1  0     0  0
  8  9  1  0     0  0
  9 10  1  0     0  0
  5  7  1  0     0  0
  6 10  1  0     0  0
 10 11  1  6     0  0
  6 12  1  6     0  0
  1 13  1  0     0  0
  5 14  1  1     0  0
  1 15  1  6     0  0
  2 16  2  0     0  0
  4 17  1  1     0  0
  3 18  2  0     0  0
 18 19  1  0     0  0
  4 20  1  0     0  0
 20 13  1  0     0  0
 13 21  1  0     0  0
 22 23  1  0     0  0
 21 22  1  0     0  0
 21 24  1  1     0  0
 20 25  1  0     0  0
 20 26  1  1     0  0
 13 27  1  1     0  0
  8 28  1  1     0  0
  8 29  1  0     0  0
 10 30  1  1     0  0
M  END
> <ID>
CHEBI:145055

> <NAME>
betaenone A

$$$$

Ketcher 10221920552D 1   1.00000     0.00000     0

 11 11  0     0  0            999 V2000
    6.8327  -19.6022    0.0000 C   0  0  0  0  0  0  0  0  0  0  0  0
    6.8327  -20.6066    0.0000 C   0  0  0  0  0  0  0  0  0  0  0  0
    7.7922  -20.9064    0.0000 O   0  0  0  0  0  0  0  0  0  0  0  0
    7.7922  -19.2875    0.0000 C   0  0  0  0  0  0  0  0  0  0  0  0
    8.3618  -20.0969    0.0000 C   0  0  0  0  0  0  0  0  0  0  0  0
    5.9783  -19.1076    0.0000 C   0  0  0  0  0  0  0  0  0  0  0  0
    5.9783  -21.1013    0.0000 C   0  0  0  0  0  0  0  0  0  0  0  0
    9.3662  -20.0969    0.0000 O   0  0  0  0  0  0  0  0  0  0  0  0
    5.0939  -20.6066    0.0000 C   0  0  0  0  0  0  0  0  0  0  0  0
    4.2275  -21.1146    0.0000 O   0  0  0  0  0  0  0  0  0  0  0  0
    5.9858  -18.1032    0.0000 O   0  0  0  0  0  0  0  0  0  0  0  0
  2  1  1  0     0  0
  4  1  2  0     0  0
  6  1  1  0     0  0
  3  2  1  0     0  0
  7  2  2  0     0  0
  5  3  1  0     0  0
  5  4  1  0     0  0
  8  5  2  0     0  0
  9  7  1  0     0  0
  9 10  1  0     0  0
  6 11  1  0     0  0
M  END
> <ID>
CHEBI:145112

> <NAME>
(E)-ascladiol

$$$$

Ketcher 02132015422D 1   1.00000     0.00000     0

 12 12  0     0  0            999 V2000
   59.0441  -12.2962    0.0000 C   0  0  0  0  0  0  0  0  0  0  0  0
   58.1781  -11.7963    0.0000 C   0  0  0  0  0  0  0  0  0  0  0  0
   57.3121  -12.2962    0.0000 C   0  0  0  0  0  0  0  0  0  0  0  0
   57.3121  -13.2963    0.0000 C   0  0  0  0  0  0  0  0  0  0  0  0
   58.1781  -13.7963    0.0000 C   0  0  0  0  0  0  0  0  0  0  0  0
   59.0441  -13.2963    0.0000 C   0  0  0  0  0  0  0  0  0  0  0  0
   58.1781  -10.7964    0.0000 O   0  0  0  0  0  0  0  0  0  0  0  0
   58.1781  -14.7963    0.0000 O   0  0  0  0  0  0  0  0  0  0  0  0
   56.4460  -11.7963    0.0000 O   0  0  0  0  0  0  0  0  0  0  0  0
   55.5800  -12.2962    0.0000 C   0  0  0  0  0  0  0  0  0  0  0  0
   59.9102  -13.7963    0.0000 C   0  0  0  0  0  0  0  0  0  0  0  0
   56.4460  -13.7963    0.0000 O   0  0  0  0  0  0  0  0  0  0  0  0
  6  1  2  0     0  0
  2  1  1  0     0  0
  2  3  1  0     0  0
  3  4  2  0     0  0
  4  5  1  0     0  0
  5  6  1  0     0  0
  2  7  2  0     0  0
  5  8  2  0     0  0
  3  9  1  0     0  0
  9 10  1  0     0  0
  6 11  1  0     0  0
  4 12  1  0     0  0
M  END
> <ID>
CHEBI:146171

> <NAME>
fumigatin

$$$$

Ketcher 04142111542D 1   1.00000     0.00000     0

 27 27  0     1  0            999 V2000
   10.8228   -5.1666    0.0000 C   0  0  0  0  0  0  0  0  0  0  0  0
   10.8227   -6.1667    0.0000 C   0  0  0  0  0  0  0  0  0  0  0  0
    9.9566   -6.6666    0.0000 C   0  0  0  0  0  0  0  0  0  0  0  0
   11.6887   -6.6667    0.0000 C   0  0  0  0  0  0  0  0  0  0  0  0
   12.5547   -6.1667    0.0000 C   0  0  0  0  0  0  0  0  0  0  0  0
   13.4207   -6.6667    0.0000 C   0  0  0  0  0  0  0  0  0  0  0  0
   13.4207   -7.6667    0.0000 C   0  0  0  0  0  0  0  0  0  0  0  0
   14.2868   -6.1667    0.0000 C   0  0  0  0  0  0  0  0  0  0  0  0
   14.2868   -5.1667    0.0000 O   0  0  0  0  0  0  0  0  0  0  0  0
   15.1528   -6.6667    0.0000 C   0  0  0  0  0  0  0  0  0  0  0  0
   15.1528   -7.6667    0.0000 C   0  0  0  0  0  0  0  0  0  0  0  0
   16.0188   -6.1667    0.0000 C   0  0  0  0  0  0  0  0  0  0  0  0
   16.8848   -6.6667    0.0000 C   0  0  0  0  0  0  0  0  0  0  0  0
   17.7508   -6.1668    0.0000 C   0  0  0  0  0  0  0  0  0  0  0  0
   18.6169   -6.6668    0.0000 C   0  0  0  0  0  0  0  0  0  0  0  0
   18.6168   -7.6669    0.0000 C   0  0  0  0  0  0  0  0  0  0  0  0
   17.7508   -8.1668    0.0000 O   0  0  0  0  0  0  0  0  0  0  0  0
   19.4828   -8.1668    0.0000 C   0  0  0  0  0  0  0  0  0  0  0  0
   19.4828   -9.1668    0.0000 C   0  0  0  0  0  0  0  0  0  0  0  0
   20.2918   -9.7547    0.0000 C   0  0  0  0  0  0  0  0  0  0  0  0
   21.2429   -9.4456    0.0000 C   0  0  0  0  0  0  0  0  0  0  0  0
   19.9828  -10.7057    0.0000 C   0  0  0  0  0  0  0  0  0  0  0  0
   20.5706  -11.5147    0.0000 O   0  0  0  0  0  0  0  0  0  0  0  0
   18.9828  -10.7057    0.0000 C   0  0  0  0  0  0  0  0  0  0  0  0
   19.0873  -11.7001    0.0000 C   0  0  0  0  0  0  0  0  0  0  0  0
   18.0047  -10.9135    0.0000 O   0  0  0  0  0  0  0  0  0  0  0  0
   18.6738   -9.7546    0.0000 O   0  0  0  0  0  0  0  0  0  0  0  0
  1  2  1  0     0  0
  2  3  1  0     0  0
  2  4  1  0     0  0
  4  5  1  0     0  0
  5  6  2  0     0  0
  6  7  1  0     0  0
  6  8  1  0     0  0
  8  9  1  6     0  0
  8 10  1  0     0  0
 10 11  1  1     0  0
 10 12  1  0     0  0
 12 13  2  0     0  0
 13 14  1  0     0  0
 14 15  2  0     0  0
 15 16  1  0     0  0
 16 17  1  6     0  0
 16 18  1  0     0  0
 18 19  1  0     0  0
 19 20  2  0     0  0
 20 21  1  0     0  0
 20 22  1  0     0  0
 22 23  2  0     0  0
 22 24  1  0     0  0
 24 25  1  0     0  0
 24 26  1  0     0  0
 24 27  1  0     0  0
 27 19  1  0     0  0
M  END
> <ID>
CHEBI:156298

> <NAME>
aurafuron A

$$$$

  Ketcher 04041717022D 1   1.00000     0.00000     0

  0  0  0     0  0            999 V2000
M  END> <ID>
CHEBI:180906

> <NAME>
terpenoid phytoalexin

$$$$

Ketcher 05262215022D 1   1.00000     0.00000     0

 29 29  0     1  0            999 V2000
    6.4285   -7.9210    0.0000 C   0  0  0  0  0  0  0  0  0  0  0  0
    7.2940   -8.4207    0.0000 C   0  0  0  0  0  0  0  0  0  0  0  0
    7.2940   -9.4201    0.0000 C   0  0  0  0  0  0  0  0  0  0  0  0
    8.1595   -7.9210    0.0000 C   0  0  0  0  0  0  0  0  0  0  0  0
    9.0250   -8.4207    0.0000 C   0  0  0  0  0  0  0  0  0  0  0  0
    9.0250   -9.4201    0.0000 C   0  0  0  0  0  0  0  0  0  0  0  0
    8.1595   -9.9198    0.0000 O   0  0  0  0  0  0  0  0  0  0  0  0
    9.8905   -9.9198    0.0000 N   0  0  0  0  0  0  0  0  0  0  0  0
    9.8905  -10.9193    0.0000 C   0  0  0  0  0  0  0  0  0  0  0  0
   10.7560  -11.4190    0.0000 C   0  0  0  0  0  0  0  0  0  0  0  0
   11.6690  -11.0125    0.0000 N   0  0  0  0  0  0  0  0  0  0  0  0
   10.8605  -12.4130    0.0000 S   0  0  0  0  0  0  0  0  0  0  0  0
   12.3378  -11.7552    0.0000 C   0  0  0  0  0  0  0  0  0  0  0  0
   11.8382  -12.6207    0.0000 C   0  0  0  0  0  0  0  0  0  0  0  0
    9.0250  -11.4190    0.0000 C   0  0  0  0  0  0  0  0  0  0  0  0
    9.8905   -7.9210    0.0000 N   0  0  0  0  0  0  0  0  0  0  0  0
   10.7560   -8.4207    0.0000 C   0  0  0  0  0  0  0  0  0  0  0  0
    9.8906   -6.9216    0.0000 C   0  0  0  0  0  0  0  0  0  0  0  0
   10.7561   -6.4219    0.0000 C   0  0  0  0  0  0  0  0  0  0  0  0
    9.0251   -6.4219    0.0000 O   0  0  0  0  0  0  0  0  0  0  0  0
   11.6216   -6.9216    0.0000 C   0  0  0  0  0  0  0  0  0  0  0  0
   11.6216   -7.9210    0.0000 C   0  0  0  0  0  0  0  0  0  0  0  0
   12.4871   -6.4219    0.0000 C   0  0  0  0  0  0  0  0  0  0  0  0
   12.4877   -5.4176    0.0000 Cl  0  0  0  0  0  0  0  0  0  0  0  0
   13.3547   -6.9228    0.0000 Cl  0  0  0  0  0  0  0  0  0  0  0  0
   13.3547   -5.9233    0.0000 Cl  0  0  0  0  0  0  0  0  0  0  0  0
    6.4279   -6.9167    0.0000 Cl  0  0  0  0  0  0  0  0  0  0  0  0
    5.5609   -8.4218    0.0000 Cl  0  0  0  0  0  0  0  0  0  0  0  0
    5.5609   -7.4224    0.0000 Cl  0  0  0  0  0  0  0  0  0  0  0  0
  1  2  1  0     0  0
  2  3  1  6     0  0
  2  4  1  0     0  0
  4  5  1  0     0  0
  5  6  1  0     0  0
  6  7  2  0     0  0
  6  8  1  0     0  0
  8  9  1  0     0  0
  9 10  1  0     0  0
 10 11  2  0     0  0
 10 12  1  0     0  0
 11 13  1  0     0  0
 12 14  1  0     0  0
 13 14  2  0     0  0
  9 15  1  6     0  0
  5 16  1  6     0  0
 16 17  1  0     0  0
 16 18  1  0     0  0
 18 19  1  0     0  0
 18 20  2  0     0  0
 19 21  1  0     0  0
 21 22  1  1     0  0
 21 23  1  0     0  0
 23 24  1  0     0  0
 23 25  1  0     0  0
 23 26  1  0     0  0
  1 27  1  0     0  0
  1 28  1  0     0  0
  1 29  1  0     0  0
M  END
> <ID>
CHEBI:189706

> <NAME>
dysidenin

$$$$

Ketcher 11252216342D 1   1.00000     0.00000     0

 39 44  0     1  0            999 V2000
   32.1236  -98.5325    0.0000 C   0  0  0  0  0  0  0  0  0  0  0  0
   32.1236  -97.5327    0.0000 C   0  0  0  0  0  0  0  0  0  0  0  0
   32.9894  -97.0328    0.0000 C   0  0  0  0  0  0  0  0  0  0  0  0
   33.8553  -97.5327    0.0000 C   0  0  0  0  0  0  0  0  0  0  0  0
   33.8553  -98.5325    0.0000 C   0  0  0  0  0  0  0  0  0  0  0  0
   32.9894  -99.0324    0.0000 C   0  0  0  0  0  0  0  0  0  0  0  0
   30.3917  -98.5325    0.0000 C   0  0  0  0  0  0  0  0  0  0  0  0
   30.3917  -97.5327    0.0000 C   0  0  0  0  0  0  0  0  0  0  0  0
   31.2578  -97.0328    0.0000 C   0  0  0  0  0  0  0  0  0  0  0  0
   34.7213  -97.0328    0.0000 C   0  0  0  0  0  0  0  0  0  0  0  0
   35.5872  -97.5327    0.0000 C   0  0  0  0  0  0  0  0  0  0  0  0
   35.5872  -98.5325    0.0000 C   0  0  0  0  0  0  0  0  0  0  0  0
   34.7213  -99.0324    0.0000 O   0  0  0  0  0  0  0  0  0  0  0  0
   34.7213  -96.0329    0.0000 O   0  0  0  0  0  0  0  0  0  0  0  0
   36.4423  -99.0264    0.0000 C   0  0  0  0  0  0  0  0  0  0  0  0
   29.5126  -99.0403    0.0000 O   0  0  0  0  0  0  0  0  0  0  0  0
   31.2578  -96.0332    0.0000 O   0  0  0  0  0  0  0  0  0  0  0  0
   32.9894  -96.0332    0.0000 O   0  0  0  0  0  0  0  0  0  0  0  0
   32.1174 -100.5333    0.0000 C   0  0  0  0  0  0  0  0  0  0  0  0
   32.1174 -101.5333    0.0000 C   0  0  0  0  0  0  0  0  0  0  0  0
   32.9834 -102.0332    0.0000 C   0  0  0  0  0  0  0  0  0  0  0  0
   33.8492 -101.5333    0.0000 C   0  0  0  0  0  0  0  0  0  0  0  0
   33.8492 -100.5333    0.0000 C   0  0  0  0  0  0  0  0  0  0  0  0
   32.9834 -100.0334    0.0000 C   0  0  0  0  0  0  0  0  0  0  0  0
   31.2515 -100.0334    0.0000 C   0  0  0  0  0  0  0  0  0  0  0  0
   30.3856 -100.5333    0.0000 C   0  0  0  0  0  0  0  0  0  0  0  0
   30.3856 -101.5333    0.0000 C   0  0  0  0  0  0  0  0  0  0  0  0
   31.2515 -102.0332    0.0000 C   0  0  0  0  0  0  0  0  0  0  0  0
   34.7150 -102.0332    0.0000 C   0  0  0  0  0  0  0  0  0  0  0  0
   35.5809 -101.5333    0.0000 C   0  0  0  0  0  0  0  0  0  0  0  0
   35.5809 -100.5333    0.0000 C   0  0  0  0  0  0  0  0  0  0  0  0
   34.7150 -100.0334    0.0000 O   0  0  0  0  0  0  0  0  0  0  0  0
   34.7150 -103.0329    0.0000 O   0  0  0  0  0  0  0  0  0  0  0  0
   36.4363 -100.0396    0.0000 C   0  0  0  0  0  0  0  0  0  0  0  0
   29.5066 -100.0257    0.0000 O   0  0  0  0  0  0  0  0  0  0  0  0
   31.2515 -103.0329    0.0000 O   0  0  0  0  0  0  0  0  0  0  0  0
   32.9834 -103.0329    0.0000 O   0  0  0  0  0  0  0  0  0  0  0  0
   31.2515  -99.0337    0.0000 C   0  0  0  0  0  0  0  0  0  0  0  0
   37.3021 -100.5398    0.0000 O   0  0  0  0  0  0  0  0  0  0  0  0
  1  2  2  0     0  0
  2  3  1  0     0  0
  3  4  2  0     0  0
  4  5  1  0     0  0
  5  6  2  0     0  0
  1  6  1  0     0  0
  7  8  1  0     0  0
  8  9  2  0     0  0
  2  9  1  0     0  0
  4 10  1  0     0  0
 10 11  1  1     0  0
 12 11  2  0     0  0
 12 13  1  1     0  0
  5 13  1  0     0  0
 10 14  2  0     0  0
 12 15  1  0     0  0
  7 16  1  0     0  0
  9 17  1  0     0  0
  3 18  1  0     0  0
 19 20  1  0     0  0
 20 21  1  0     0  0
 21 22  2  0     0  0
 22 23  1  0     0  0
 23 24  2  0     0  0
 19 24  1  0     0  0
 19 25  2  0     0  0
 25 26  1  1     0  0
 27 26  2  0     0  0
 28 27  1  1     0  0
 20 28  2  0     0  0
 22 29  1  0     0  0
 29 30  1  0     0  0
 30 31  2  0     0  0
 31 32  1  0     0  0
 23 32  1  0     0  0
 29 33  2  0     0  0
 31 34  1  0     0  0
 26 35  1  0     0  0
 28 36  1  0     0  0
 21 37  1  0     0  0
 25 38  1  0     0  0
  1 38  1  0     0  0
 38  7  2  0     0  0
 34 39  1  0     0  0
M  END
> <ID>
CHEBI:194127

> <NAME>
ustilaginoidin B

$$$$

Ketcher 11222214432D 1   1.00000     0.00000     0

 40 45  0     1  0            999 V2000
   37.8456  -65.4557    0.0000 C   0  0  0  0  0  0  0  0  0  0  0  0
   37.8456  -64.4558    0.0000 C   0  0  0  0  0  0  0  0  0  0  0  0
   38.7115  -63.9560    0.0000 C   0  0  0  0  0  0  0  0  0  0  0  0
   39.5772  -64.4558    0.0000 C   0  0  0  0  0  0  0  0  0  0  0  0
   39.5772  -65.4557    0.0000 C   0  0  0  0  0  0  0  0  0  0  0  0
   38.7115  -65.9556    0.0000 C   0  0  0  0  0  0  0  0  0  0  0  0
   36.1137  -65.4557    0.0000 C   0  0  0  0  0  0  0  0  0  0  0  0
   36.1137  -64.4558    0.0000 C   0  0  0  0  0  0  0  0  0  0  0  0
   36.9797  -63.9560    0.0000 C   0  0  0  0  0  0  0  0  0  0  0  0
   40.4434  -63.9560    0.0000 C   0  0  0  0  0  0  0  0  0  0  0  0
   41.3092  -64.4558    0.0000 C   0  0  0  0  0  0  0  0  0  0  0  0
   41.3092  -65.4557    0.0000 C   0  0  0  0  0  0  0  0  0  0  0  0
   40.4434  -65.9556    0.0000 O   0  0  0  0  0  0  0  0  0  0  0  0
   40.4434  -62.9561    0.0000 O   0  0  0  0  0  0  0  0  0  0  0  0
   42.1644  -65.9496    0.0000 C   0  0  0  0  0  0  0  0  0  0  0  0
   35.2345  -65.9635    0.0000 O   0  0  0  0  0  0  0  0  0  0  0  0
   36.9797  -62.9564    0.0000 O   0  0  0  0  0  0  0  0  0  0  0  0
   38.7115  -62.9564    0.0000 O   0  0  0  0  0  0  0  0  0  0  0  0
   37.8393  -67.4566    0.0000 C   0  0  0  0  0  0  0  0  0  0  0  0
   37.8393  -68.4565    0.0000 C   0  0  0  0  0  0  0  0  0  0  0  0
   38.7055  -68.9564    0.0000 C   0  0  0  0  0  0  0  0  0  0  0  0
   39.5712  -68.4565    0.0000 C   0  0  0  0  0  0  0  0  0  0  0  0
   39.5712  -67.4566    0.0000 C   0  0  0  0  0  0  0  0  0  0  0  0
   38.7055  -66.9566    0.0000 C   0  0  0  0  0  0  0  0  0  0  0  0
   36.9736  -66.9566    0.0000 C   0  0  0  0  0  0  0  0  0  0  0  0
   36.1076  -67.4566    0.0000 C   0  0  0  0  0  0  0  0  0  0  0  0
   36.1076  -68.4565    0.0000 C   0  0  0  0  0  0  0  0  0  0  0  0
   36.9736  -68.9564    0.0000 C   0  0  0  0  0  0  0  0  0  0  0  0
   40.4371  -68.9564    0.0000 C   0  0  0  0  0  0  0  0  0  0  0  0
   41.3030  -68.4565    0.0000 C   0  0  0  0  0  0  0  0  0  0  0  0
   41.3030  -67.4566    0.0000 C   0  0  0  0  0  0  0  0  0  0  0  0
   40.4371  -66.9566    0.0000 O   0  0  0  0  0  0  0  0  0  0  0  0
   40.4371  -69.9561    0.0000 O   0  0  0  0  0  0  0  0  0  0  0  0
   42.1584  -66.9628    0.0000 C   0  0  0  0  0  0  0  0  0  0  0  0
   35.2285  -66.9489    0.0000 O   0  0  0  0  0  0  0  0  0  0  0  0
   36.9736  -69.9561    0.0000 O   0  0  0  0  0  0  0  0  0  0  0  0
   38.7055  -69.9561    0.0000 O   0  0  0  0  0  0  0  0  0  0  0  0
   36.9736  -65.9569    0.0000 C   0  0  0  0  0  0  0  0  0  0  0  0
   43.0241  -67.4630    0.0000 O   0  0  0  0  0  0  0  0  0  0  0  0
   43.0317  -65.4523    0.0000 O   0  0  0  0  0  0  0  0  0  0  0  0
  1  2  2  0     0  0
  2  3  1  0     0  0
  3  4  2  0     0  0
  4  5  1  0     0  0
  5  6  2  0     0  0
  1  6  1  0     0  0
  7  8  1  0     0  0
  8  9  2  0     0  0
  2  9  1  0     0  0
  4 10  1  0     0  0
 10 11  1  1     0  0
 12 11  2  0     0  0
 12 13  1  1     0  0
  5 13  1  0     0  0
 10 14  2  0     0  0
 12 15  1  0     0  0
  7 16  1  0     0  0
  9 17  1  0     0  0
  3 18  1  0     0  0
 19 20  1  0     0  0
 20 21  1  0     0  0
 21 22  2  0     0  0
 22 23  1  0     0  0
 23 24  2  0     0  0
 19 24  1  0     0  0
 19 25  2  0     0  0
 25 26  1  1     0  0
 27 26  2  0     0  0
 28 27  1  1     0  0
 20 28  2  0     0  0
 22 29  1  0     0  0
 29 30  1  0     0  0
 30 31  2  0     0  0
 31 32  1  0     0  0
 23 32  1  0     0  0
 29 33  2  0     0  0
 31 34  1  0     0  0
 26 35  1  0     0  0
 28 36  1  0     0  0
 21 37  1  0     0  0
 25 38  1  0     0  0
  1 38  1  0     0  0
 38  7  2  0     0  0
 34 39  1  0     0  0
 15 40  1  0     0  0
M  END
> <ID>
CHEBI:194128

> <NAME>
ustilaginoidin C

$$$$

Ketcher 11222214442D 1   1.00000     0.00000     0

 38 43  0     1  0            999 V2000
   11.4051  -19.8743    0.0000 C   0  0  0  0  0  0  0  0  0  0  0  0
   11.4051  -18.8744    0.0000 C   0  0  0  0  0  0  0  0  0  0  0  0
   12.2708  -18.3746    0.0000 C   0  0  0  0  0  0  0  0  0  0  0  0
   13.1366  -18.8744    0.0000 C   0  0  0  0  0  0  0  0  0  0  0  0
   13.1366  -19.8743    0.0000 C   0  0  0  0  0  0  0  0  0  0  0  0
   12.2708  -20.3742    0.0000 C   0  0  0  0  0  0  0  0  0  0  0  0
    9.6732  -19.8743    0.0000 C   0  0  0  0  0  0  0  0  0  0  0  0
    9.6732  -18.8744    0.0000 C   0  0  0  0  0  0  0  0  0  0  0  0
   10.5392  -18.3746    0.0000 C   0  0  0  0  0  0  0  0  0  0  0  0
   14.0027  -18.3746    0.0000 C   0  0  0  0  0  0  0  0  0  0  0  0
   14.8685  -18.8744    0.0000 C   0  0  0  0  0  0  0  0  0  0  0  0
   14.8685  -19.8743    0.0000 C   0  0  0  0  0  0  0  0  0  0  0  0
   14.0027  -20.3742    0.0000 O   0  0  0  0  0  0  0  0  0  0  0  0
   14.0027  -17.3747    0.0000 O   0  0  0  0  0  0  0  0  0  0  0  0
   15.7237  -20.3682    0.0000 C   0  0  0  0  0  0  0  0  0  0  0  0
    8.7940  -20.3821    0.0000 O   0  0  0  0  0  0  0  0  0  0  0  0
   10.5392  -17.3750    0.0000 O   0  0  0  0  0  0  0  0  0  0  0  0
   12.2708  -17.3750    0.0000 O   0  0  0  0  0  0  0  0  0  0  0  0
   11.3988  -21.8751    0.0000 C   0  0  0  0  0  0  0  0  0  0  0  0
   11.3988  -22.8751    0.0000 C   0  0  0  0  0  0  0  0  0  0  0  0
   12.2648  -23.3750    0.0000 C   0  0  0  0  0  0  0  0  0  0  0  0
   13.1306  -22.8751    0.0000 C   0  0  0  0  0  0  0  0  0  0  0  0
   13.1306  -21.8751    0.0000 C   0  0  0  0  0  0  0  0  0  0  0  0
   12.2648  -21.3752    0.0000 C   0  0  0  0  0  0  0  0  0  0  0  0
   10.5330  -21.3752    0.0000 C   0  0  0  0  0  0  0  0  0  0  0  0
    9.6671  -21.8751    0.0000 C   0  0  0  0  0  0  0  0  0  0  0  0
    9.6671  -22.8751    0.0000 C   0  0  0  0  0  0  0  0  0  0  0  0
   10.5330  -23.3750    0.0000 C   0  0  0  0  0  0  0  0  0  0  0  0
   13.9964  -23.3750    0.0000 C   0  0  0  0  0  0  0  0  0  0  0  0
   14.8623  -22.8751    0.0000 C   0  0  0  0  0  0  0  0  0  0  0  0
   14.8623  -21.8751    0.0000 C   0  0  0  0  0  0  0  0  0  0  0  0
   13.9964  -21.3752    0.0000 O   0  0  0  0  0  0  0  0  0  0  0  0
   13.9964  -24.3747    0.0000 O   0  0  0  0  0  0  0  0  0  0  0  0
   15.7177  -21.3814    0.0000 C   0  0  0  0  0  0  0  0  0  0  0  0
    8.7880  -21.3675    0.0000 O   0  0  0  0  0  0  0  0  0  0  0  0
   10.5330  -24.3747    0.0000 O   0  0  0  0  0  0  0  0  0  0  0  0
   12.2648  -24.3747    0.0000 O   0  0  0  0  0  0  0  0  0  0  0  0
   10.5330  -20.3755    0.0000 C   0  0  0  0  0  0  0  0  0  0  0  0
  1  2  2  0     0  0
  2  3  1  0     0  0
  3  4  2  0     0  0
  4  5  1  0     0  0
  5  6  2  0     0  0
  1  6  1  0     0  0
  7  8  1  0     0  0
  8  9  2  0     0  0
  2  9  1  0     0  0
  4 10  1  0     0  0
 10 11  1  1     0  0
 12 11  1  0     0  0
 12 13  1  1     0  0
  5 13  1  0     0  0
 10 14  2  0     0  0
 12 15  1  0     0  0
  7 16  1  0     0  0
  9 17  1  0     0  0
  3 18  1  0     0  0
 19 20  2  0     0  0
 20 21  1  0     0  0
 21 22  2  0     0  0
 22 23  1  0     0  0
 23 24  2  0     0  0
 19 24  1  0     0  0
 19 25  1  0     0  0
 25 26  1  1     0  0
 27 26  2  0     0  0
 28 27  1  1     0  0
 20 28  1  0     0  0
 22 29  1  0     0  0
 29 30  1  0     0  0
 30 31  2  0     0  0
 31 32  1  0     0  0
 23 32  1  0     0  0
 29 33  2  0     0  0
 31 34  1  0     0  0
 26 35  1  0     0  0
 28 36  1  0     0  0
 21 37  1  0     0  0
 25 38  1  0     0  0
  1 38  1  0     0  0
 38  7  2  0     0  0
M  END
> <ID>
CHEBI:194129

> <NAME>
ustilaginoidin G

$$$$

Ketcher 11252216362D 1   1.00000     0.00000     0

 39 44  0     1  0            999 V2000
   12.4988  -33.7859    0.0000 C   0  0  0  0  0  0  0  0  0  0  0  0
   12.4988  -32.7860    0.0000 C   0  0  0  0  0  0  0  0  0  0  0  0
   13.3647  -32.2862    0.0000 C   0  0  0  0  0  0  0  0  0  0  0  0
   14.2304  -32.7860    0.0000 C   0  0  0  0  0  0  0  0  0  0  0  0
   14.2304  -33.7859    0.0000 C   0  0  0  0  0  0  0  0  0  0  0  0
   13.3647  -34.2858    0.0000 C   0  0  0  0  0  0  0  0  0  0  0  0
   10.7670  -33.7859    0.0000 C   0  0  0  0  0  0  0  0  0  0  0  0
   10.7670  -32.7860    0.0000 C   0  0  0  0  0  0  0  0  0  0  0  0
   11.6329  -32.2862    0.0000 C   0  0  0  0  0  0  0  0  0  0  0  0
   15.0966  -32.2862    0.0000 C   0  0  0  0  0  0  0  0  0  0  0  0
   15.9623  -32.7860    0.0000 C   0  0  0  0  0  0  0  0  0  0  0  0
   15.9623  -33.7859    0.0000 C   0  0  0  0  0  0  0  0  0  0  0  0
   15.0966  -34.2858    0.0000 O   0  0  0  0  0  0  0  0  0  0  0  0
   15.0966  -31.2863    0.0000 O   0  0  0  0  0  0  0  0  0  0  0  0
   16.8175  -34.2798    0.0000 C   0  0  0  0  0  0  0  0  0  0  0  0
    9.8877  -34.2937    0.0000 O   0  0  0  0  0  0  0  0  0  0  0  0
   11.6329  -31.2866    0.0000 O   0  0  0  0  0  0  0  0  0  0  0  0
   13.3647  -31.2866    0.0000 O   0  0  0  0  0  0  0  0  0  0  0  0
   12.4925  -35.7867    0.0000 C   0  0  0  0  0  0  0  0  0  0  0  0
   12.4925  -36.7867    0.0000 C   0  0  0  0  0  0  0  0  0  0  0  0
   13.3587  -37.2866    0.0000 C   0  0  0  0  0  0  0  0  0  0  0  0
   14.2244  -36.7867    0.0000 C   0  0  0  0  0  0  0  0  0  0  0  0
   14.2244  -35.7867    0.0000 C   0  0  0  0  0  0  0  0  0  0  0  0
   13.3587  -35.2868    0.0000 C   0  0  0  0  0  0  0  0  0  0  0  0
   11.6268  -35.2868    0.0000 C   0  0  0  0  0  0  0  0  0  0  0  0
   10.7609  -35.7867    0.0000 C   0  0  0  0  0  0  0  0  0  0  0  0
   10.7609  -36.7867    0.0000 C   0  0  0  0  0  0  0  0  0  0  0  0
   11.6268  -37.2866    0.0000 C   0  0  0  0  0  0  0  0  0  0  0  0
   15.0902  -37.2866    0.0000 C   0  0  0  0  0  0  0  0  0  0  0  0
   15.9562  -36.7867    0.0000 C   0  0  0  0  0  0  0  0  0  0  0  0
   15.9562  -35.7867    0.0000 C   0  0  0  0  0  0  0  0  0  0  0  0
   15.0902  -35.2868    0.0000 O   0  0  0  0  0  0  0  0  0  0  0  0
   15.0902  -38.2863    0.0000 O   0  0  0  0  0  0  0  0  0  0  0  0
   16.8115  -35.2929    0.0000 C   0  0  0  0  0  0  0  0  0  0  0  0
    9.8817  -35.2791    0.0000 O   0  0  0  0  0  0  0  0  0  0  0  0
   11.6268  -38.2863    0.0000 O   0  0  0  0  0  0  0  0  0  0  0  0
   13.3587  -38.2863    0.0000 O   0  0  0  0  0  0  0  0  0  0  0  0
   11.6268  -34.2871    0.0000 C   0  0  0  0  0  0  0  0  0  0  0  0
   17.6849  -33.7825    0.0000 O   0  0  0  0  0  0  0  0  0  0  0  0
  1  2  2  0     0  0
  2  3  1  0     0  0
  3  4  2  0     0  0
  4  5  1  0     0  0
  5  6  2  0     0  0
  1  6  1  0     0  0
  7  8  1  0     0  0
  8  9  2  0     0  0
  2  9  1  0     0  0
  4 10  1  0     0  0
 10 11  1  1     0  0
 12 11  1  0     0  0
 12 13  1  1     0  0
  5 13  1  0     0  0
 10 14  2  0     0  0
 12 15  1  0     0  0
  7 16  1  0     0  0
  9 17  1  0     0  0
  3 18  1  0     0  0
 19 20  2  0     0  0
 20 21  1  0     0  0
 21 22  2  0     0  0
 22 23  1  0     0  0
 23 24  2  0     0  0
 19 24  1  0     0  0
 19 25  1  0     0  0
 25 26  1  1     0  0
 27 26  2  0     0  0
 28 27  1  1     0  0
 20 28  1  0     0  0
 22 29  1  0     0  0
 29 30  1  0     0  0
 30 31  2  0     0  0
 31 32  1  0     0  0
 23 32  1  0     0  0
 29 33  2  0     0  0
 31 34  1  0     0  0
 26 35  1  0     0  0
 28 36  1  0     0  0
 21 37  1  0     0  0
 25 38  1  0     0  0
  1 38  1  0     0  0
 38  7  2  0     0  0
 15 39  1  0     0  0
M  END
> <ID>
CHEBI:194132

> <NAME>
ustilaginoidin I

$$$$

Marvin  02101016052D          

 38 42  0  0  1  0            999 V2000
   13.7086   -2.5425    0.0000 C   0  0  2  0  0  0  0  0  0  0  0  0
   13.0042   -2.9498    0.0000 C   0  0  1  0  0  0  0  0  0  0  0  0
   13.7122   -1.7198    0.0000 C   0  0  1  0  0  0  0  0  0  0  0  0
   13.0653   -1.9593    0.0000 O   0  0  0  0  0  0  0  0  0  0  0  0
   12.2947   -2.5391    0.0000 C   0  0  2  0  0  0  0  0  0  0  0  0
   14.5236   -2.9513    0.0000 C   0  0  1  0  0  0  0  0  0  0  0  0
   12.9971   -3.7648    0.0000 C   0  0  0  0  0  0  0  0  0  0  0  0
   14.5316   -1.7198    0.0000 C   0  0  0  0  0  0  0  0  0  0  0  0
   13.0113   -1.3130    0.0000 O   0  0  0  0  0  0  0  0  0  0  0  0
   12.2984   -1.7162    0.0000 C   0  0  2  0  0  0  0  0  0  0  0  0
   11.5859   -2.9463    0.0000 C   0  0  0  0  0  0  0  0  0  0  0  0
   12.5596   -3.2814    0.0000 C   0  0  0  0  0  0  0  0  0  0  0  0
   11.5859   -1.3095    0.0000 C   0  0  0  0  0  0  0  0  0  0  0  0
   10.8772   -2.5391    0.0000 C   0  0  0  0  0  0  0  0  0  0  0  0
   10.8772   -1.7162    0.0000 C   0  0  0  0  0  0  0  0  0  0  0  0
   13.7050   -0.9013    0.0000 H   0  0  0  0  0  0  0  0  0  0  0  0
   12.2913   -0.8978    0.0000 H   0  0  0  0  0  0  0  0  0  0  0  0
   15.2703   -3.3281    0.0000 O   0  0  0  0  0  0  0  0  0  0  0  0
   15.9885   -2.9111    0.0000 C   0  0  0  0  0  0  0  0  0  0  0  0
   16.7050   -3.3244    0.0000 C   0  0  0  0  0  0  0  0  0  0  0  0
   15.9885   -2.0848    0.0000 O   0  0  0  0  0  0  0  0  0  0  0  0
   16.7050   -4.1508    0.0000 C   0  0  0  0  0  0  0  0  0  0  0  0
   15.9885   -4.5685    0.0000 C   0  0  0  0  0  0  0  0  0  0  0  0
   15.9885   -5.3948    0.0000 C   0  0  0  0  0  0  0  0  0  0  0  0
   15.2676   -5.8038    0.0000 C   0  0  0  0  0  0  0  0  0  0  0  0
   14.5554   -5.3948    0.0000 O   0  0  0  0  0  0  0  0  0  0  0  0
   13.8430   -5.8038    0.0000 C   0  0  0  0  0  0  0  0  0  0  0  0
   13.1222   -5.3948    0.0000 C   0  0  0  0  0  0  0  0  0  0  0  0
   12.4057   -5.8038    0.0000 C   0  0  2  0  0  0  0  0  0  0  0  0
   11.6891   -5.3948    0.0000 C   0  0  2  0  0  0  0  0  0  0  0  0
   10.9724   -5.8038    0.0000 O   0  0  0  0  0  0  0  0  0  0  0  0
   11.6891   -4.5685    0.0000 C   0  0  0  0  0  0  0  0  0  0  0  0
   10.9724   -4.1508    0.0000 O   0  0  0  0  0  0  0  0  0  0  0  0
   12.4059   -4.1501    0.0000 O   0  0  0  0  0  0  0  0  0  0  0  0
   12.4057   -6.6302    0.0000 C   0  0  0  0  0  0  0  0  0  0  0  0
   10.1625   -1.3056    0.0000 C   0  0  0  0  0  0  0  0  0  0  0  0
   15.2666   -6.6474    0.0000 O   0  0  0  0  0  0  0  0  0  0  0  0
   12.6797   -2.5546    0.0000 C   0  0  0  0  0  0  0  0  0  0  0  0
  6 18  1  1  0  0  0
  1  2  1  0  0  0  0
 18 19  1  0  0  0  0
  1  3  1  0  0  0  0
 19 20  1  0  0  0  0
  1  4  1  1  0  0  0
 19 21  2  0  0  0  0
 20 22  2  0  0  0  0
  2  5  1  0  0  0  0
 22 23  1  0  0  0  0
  2  6  1  0  0  0  0
 23 24  2  0  0  0  0
  2  7  1  1  0  0  0
 24 25  1  0  0  0  0
  3  8  1  0  0  0  0
 25 26  1  0  0  0  0
  3  9  1  0  0  0  0
 26 27  1  0  0  0  0
  5 10  1  0  0  0  0
 27 28  1  0  0  0  0
  5 11  1  0  0  0  0
 28 29  1  0  0  0  0
  5 12  1  6  0  0  0
 29 30  1  0  0  0  0
 10 13  1  0  0  0  0
 11 14  1  0  0  0  0
 13 15  2  0  0  0  0
 15 36  1  0  0  0  0
 30 31  1  6  0  0  0
  6  8  1  0  0  0  0
 30 32  1  0  0  0  0
 32 34  1  0  0  0  0
  9 10  1  0  0  0  0
 32 33  2  0  0  0  0
 14 15  1  0  0  0  0
 12 34  1  0  0  0  0
  3 16  1  1  0  0  0
 29 35  1  1  0  0  0
 10 17  1  6  0  0  0
 25 37  2  0  0  0  0
  1 38  1  0  0  0  0
  4 38  1  0  0  0  0
M  END
> <ID>
CHEBI:230243

> <NAME>
verrucarin A

$$$$

Ketcher 10082015462D 1   1.00000     0.00000     0

 23 26  0     1  0            999 V2000
    9.8211   -6.2689    0.0000 C   0  0  0  0  0  0  0  0  0  0  0  0
   10.2262   -5.5188    0.0000 O   0  0  0  0  0  0  0  0  0  0  0  0
   10.9454   -6.2547    0.0000 C   0  0  0  0  0  0  0  0  0  0  0  0
   10.1296   -6.7186    0.0000 C   0  0  0  0  0  0  0  0  0  0  0  0
   10.9496   -5.3058    0.0000 C   0  0  0  0  0  0  0  0  0  0  0  0
    9.3166   -6.2463    0.0000 C   0  0  0  0  0  0  0  0  0  0  0  0
   11.9119   -6.7237    0.0000 C   0  0  0  0  0  0  0  0  0  0  0  0
   10.1214   -7.6550    0.0000 C   0  0  0  0  0  0  0  0  0  0  0  0
   10.1380   -4.8286    0.0000 O   0  0  0  0  0  0  0  0  0  0  0  0
   11.8900   -5.3058    0.0000 C   0  0  0  0  0  0  0  0  0  0  0  0
    9.3208   -5.2975    0.0000 C   0  0  0  0  0  0  0  0  0  0  0  0
    8.5042   -6.7145    0.0000 C   0  0  0  0  0  0  0  0  0  0  0  0
    9.5659   -7.2129    0.0000 C   0  0  0  0  0  0  0  0  0  0  0  0
   12.5623   -4.6334    0.0000 O   0  0  0  0  0  0  0  0  0  0  0  0
    8.5042   -4.8243    0.0000 C   0  0  0  0  0  0  0  0  0  0  0  0
    7.6888   -6.2463    0.0000 C   0  0  0  0  0  0  0  0  0  0  0  0
    7.8245   -7.3817    0.0000 O   0  0  0  0  0  0  0  0  0  0  0  0
    9.1279   -7.9446    0.0000 O   0  0  0  0  0  0  0  0  0  0  0  0
    7.6888   -5.2975    0.0000 C   0  0  0  0  0  0  0  0  0  0  0  0
    6.8674   -6.7145    0.0000 O   0  0  0  0  0  0  0  0  0  0  0  0
    6.8674   -4.8243    0.0000 C   0  0  0  0  0  0  0  0  0  0  0  0
   10.9411   -4.3559    0.0000 H   0  0  0  0  0  0  0  0  0  0  0  0
    9.3124   -4.3519    0.0000 H   0  0  0  0  0  0  0  0  0  0  0  0
  1  2  1  0     0  0
  3  4  1  0     0  0
  3  5  1  0     0  0
  3  2  1  1     0  0
  4  6  1  0     0  0
  4  7  1  0     0  0
  4  8  1  1     0  0
  5  9  1  0     0  0
  5 10  1  0     0  0
  6 11  1  0     0  0
  6 12  1  0     0  0
  6 13  1  6     0  0
 10 14  1  6     0  0
 11 15  1  0     0  0
 12 16  1  0     0  0
 12 17  1  6     0  0
 13 18  1  0     0  0
 15 19  2  0     0  0
 16 20  2  0     0  0
 19 21  1  0     0  0
  7 10  1  0     0  0
  9 11  1  0     0  0
 16 19  1  0     0  0
  5 22  1  1     0  0
 11 23  1  6     0  0
  3  1  1  0     0  0
M  END
> <ID>
CHEBI:10022

> <NAME>
deoxynivalenol

$$$$

Ketcher 10082015492D 1   1.00000     0.00000     0

 26 29  0     1  0            999 V2000
   10.8814  -20.0279    0.0000 C   0  0  0  0  0  0  0  0  0  0  0  0
   11.2889  -19.2732    0.0000 O   0  0  0  0  0  0  0  0  0  0  0  0
   12.0124  -20.0135    0.0000 C   0  0  0  0  0  0  0  0  0  0  0  0
   11.1917  -20.4802    0.0000 C   0  0  0  0  0  0  0  0  0  0  0  0
   12.0166  -19.0589    0.0000 C   0  0  0  0  0  0  0  0  0  0  0  0
   10.3739  -20.0051    0.0000 C   0  0  0  0  0  0  0  0  0  0  0  0
   12.9846  -20.4854    0.0000 C   0  0  0  0  0  0  0  0  0  0  0  0
   11.1835  -21.4222    0.0000 C   0  0  0  0  0  0  0  0  0  0  0  0
   11.2002  -18.5789    0.0000 O   0  0  0  0  0  0  0  0  0  0  0  0
   12.9627  -19.0589    0.0000 C   0  0  0  0  0  0  0  0  0  0  0  0
   10.3781  -19.0506    0.0000 C   0  0  0  0  0  0  0  0  0  0  0  0
    9.5567  -20.4762    0.0000 C   0  0  0  0  0  0  0  0  0  0  0  0
   10.6247  -20.9775    0.0000 C   0  0  0  0  0  0  0  0  0  0  0  0
   13.6390  -18.3825    0.0000 O   0  0  0  0  0  0  0  0  0  0  0  0
    9.5567  -18.5745    0.0000 C   0  0  0  0  0  0  0  0  0  0  0  0
    8.7364  -20.0051    0.0000 C   0  0  0  0  0  0  0  0  0  0  0  0
    8.8729  -21.1472    0.0000 O   0  0  0  0  0  0  0  0  0  0  0  0
   10.1841  -21.7135    0.0000 O   0  0  0  0  0  0  0  0  0  0  0  0
    8.7364  -19.0506    0.0000 C   0  0  0  0  0  0  0  0  0  0  0  0
    7.9101  -20.4762    0.0000 O   0  0  0  0  0  0  0  0  0  0  0  0
    7.9101  -18.5745    0.0000 C   0  0  0  0  0  0  0  0  0  0  0  0
   12.0082  -18.1036    0.0000 H   0  0  0  0  0  0  0  0  0  0  0  0
   10.3697  -18.0994    0.0000 H   0  0  0  0  0  0  0  0  0  0  0  0
   10.6452  -22.5422    0.0000 C   0  0  0  0  0  0  0  0  0  0  0  0
   11.5934  -22.5573    0.0000 O   0  0  0  0  0  0  0  0  0  0  0  0
   10.1581  -23.3559    0.0000 C   0  0  0  0  0  0  0  0  0  0  0  0
  1  2  1  0     0  0
  3  4  1  0     0  0
  3  5  1  0     0  0
  3  2  1  1     0  0
  4  6  1  0     0  0
  4  7  1  0     0  0
  4  8  1  1     0  0
  5  9  1  0     0  0
  5 10  1  0     0  0
  6 11  1  0     0  0
  6 12  1  0     0  0
  6 13  1  6     0  0
 10 14  1  6     0  0
 11 15  1  0     0  0
 12 16  1  0     0  0
 12 17  1  6     0  0
 13 18  1  0     0  0
 15 19  2  0     0  0
 16 20  2  0     0  0
 19 21  1  0     0  0
  7 10  1  0     0  0
  9 11  1  0     0  0
 16 19  1  0     0  0
  5 22  1  1     0  0
 11 23  1  6     0  0
  3  1  1  0     0  0
 24 25  2  0     0  0
 24 26  1  0     0  0
 18 24  1  0     0  0
M  END
> <ID>
CHEBI:146194

> <NAME>
15-acetyldeoxynivalenol

$$$$

Ketcher 10082015512D 1   1.00000     0.00000     0

 26 29  0     1  0            999 V2000
   13.9772   -8.8516    0.0000 C   0  0  0  0  0  0  0  0  0  0  0  0
   14.3848   -8.0970    0.0000 O   0  0  0  0  0  0  0  0  0  0  0  0
   15.1082   -8.8374    0.0000 C   0  0  0  0  0  0  0  0  0  0  0  0
   14.2876   -9.3040    0.0000 C   0  0  0  0  0  0  0  0  0  0  0  0
   15.1124   -7.8827    0.0000 C   0  0  0  0  0  0  0  0  0  0  0  0
   13.4697   -8.8289    0.0000 C   0  0  0  0  0  0  0  0  0  0  0  0
   16.0805   -9.3091    0.0000 C   0  0  0  0  0  0  0  0  0  0  0  0
   14.2793  -10.2460    0.0000 C   0  0  0  0  0  0  0  0  0  0  0  0
   14.2961   -7.4027    0.0000 O   0  0  0  0  0  0  0  0  0  0  0  0
   16.0585   -7.8827    0.0000 C   0  0  0  0  0  0  0  0  0  0  0  0
   13.4739   -7.8744    0.0000 C   0  0  0  0  0  0  0  0  0  0  0  0
   12.6525   -9.2999    0.0000 C   0  0  0  0  0  0  0  0  0  0  0  0
   13.7206   -9.8013    0.0000 C   0  0  0  0  0  0  0  0  0  0  0  0
   16.7349   -7.2063    0.0000 O   0  0  0  0  0  0  0  0  0  0  0  0
   12.6525   -7.3984    0.0000 C   0  0  0  0  0  0  0  0  0  0  0  0
   11.8321   -8.8289    0.0000 C   0  0  0  0  0  0  0  0  0  0  0  0
   11.9687   -9.9711    0.0000 O   0  0  0  0  0  0  0  0  0  0  0  0
   13.2800  -10.5373    0.0000 O   0  0  0  0  0  0  0  0  0  0  0  0
   11.8321   -7.8744    0.0000 C   0  0  0  0  0  0  0  0  0  0  0  0
   11.0059   -9.2999    0.0000 O   0  0  0  0  0  0  0  0  0  0  0  0
   11.0059   -7.3984    0.0000 C   0  0  0  0  0  0  0  0  0  0  0  0
   15.1040   -6.9273    0.0000 H   0  0  0  0  0  0  0  0  0  0  0  0
   13.4655   -6.9232    0.0000 H   0  0  0  0  0  0  0  0  0  0  0  0
   17.6509   -7.4517    0.0000 C   0  0  0  0  0  0  0  0  0  0  0  0
   18.3215   -6.7811    0.0000 O   0  0  0  0  0  0  0  0  0  0  0  0
   17.8964   -8.3678    0.0000 C   0  0  0  0  0  0  0  0  0  0  0  0
  1  2  1  0     0  0
  3  4  1  0     0  0
  3  5  1  0     0  0
  3  2  1  1     0  0
  4  6  1  0     0  0
  4  7  1  0     0  0
  4  8  1  1     0  0
  5  9  1  0     0  0
  5 10  1  0     0  0
  6 11  1  0     0  0
  6 12  1  0     0  0
  6 13  1  6     0  0
 10 14  1  6     0  0
 11 15  1  0     0  0
 12 16  1  0     0  0
 12 17  1  6     0  0
 13 18  1  0     0  0
 15 19  2  0     0  0
 16 20  2  0     0  0
 19 21  1  0     0  0
  7 10  1  0     0  0
  9 11  1  0     0  0
 16 19  1  0     0  0
  5 22  1  1     0  0
 11 23  1  6     0  0
  3  1  1  0     0  0
 24 25  2  0     0  0
 24 26  1  0     0  0
 14 24  1  0     0  0
M  END
> <ID>
CHEBI:146195

> <NAME>
3-acetyldeoxynivalenol

$$$$

ISISHOST03240423232D 1   1.00000     0.00000  8704

 28 31  0     1  0            999 V2000
   10.1575   -7.8723    0.0000 C   0  0  1  0  0  0           0  0  0
    9.4758   -8.2625    0.0000 C   0  0  1  0  0  0           0  0  0
   10.1569   -7.0801    0.0000 C   0  0  1  0  0  0           0  0  0
    9.6224   -7.2411    0.0000 O   0  0  0  0  0  0           0  0  0
    9.3339   -7.8581    0.0000 C   0  0  0  0  0  0           0  0  0
    8.7931   -7.8689    0.0000 C   0  0  2  0  0  0           0  0  0
   10.9422   -8.2639    0.0000 C   0  0  1  0  0  0           0  0  0
    9.4689   -9.0513    0.0000 C   0  0  0  0  0  0           0  0  0
   10.9499   -7.0801    0.0000 C   0  0  1  0  0  0           0  0  0
    9.4826   -6.6864    0.0000 O   0  0  0  0  0  0           0  0  0
    8.7966   -7.0766    0.0000 C   0  0  2  0  0  0           0  0  0
    8.1112   -8.2591    0.0000 C   0  0  0  0  0  0           0  0  0
    9.0495   -8.5833    0.0000 C   0  0  0  0  0  0           0  0  0
    8.1112   -6.6830    0.0000 C   0  0  0  0  0  0           0  0  0
    7.4251   -7.8689    0.0000 C   0  0  0  0  0  0           0  0  0
    7.4251   -7.0766    0.0000 C   0  0  0  0  0  0           0  0  0
    6.7432   -6.6830    0.0000 C   0  0  0  0  0  0           0  0  0
   10.1541   -6.2919    0.0000 H   0  0  0  0  0  0           0  0  0
    8.7897   -6.2885    0.0000 H   0  0  0  0  0  0           0  0  0
   11.6610   -8.6285    0.0000 O   0  0  0  0  0  0           0  0  0
   12.3519   -8.2291    0.0000 C   0  0  0  0  0  0           0  0  0
   13.0414   -8.6250    0.0000 C   0  0  0  0  0  0           0  0  0
   12.3519   -7.4292    0.0000 O   0  0  0  0  0  0           0  0  0
    8.2110  -10.6208    0.0000 C   0  0  0  0  0  0           0  0  0
    8.2110   -9.8250    0.0000 C   0  0  0  0  0  0           0  0  0
    7.5214   -9.4208    0.0000 O   0  0  0  0  0  0           0  0  0
    8.9007   -9.4201    0.0000 O   0  0  0  0  0  0           0  0  0
   11.5268   -6.5069    0.0000 O   0  0  0  0  0  0           0  0  0
 11 19  1  6     0  0
  7 20  1  1     0  0
  1  2  1  0     0  0
 20 21  1  0     0  0
  1  3  1  0     0  0
 21 22  1  0     0  0
  1  4  1  6     0  0
 21 23  2  0     0  0
  1  5  1  0     0  0
  2  6  1  0     0  0
  2  7  1  0     0  0
  2  8  1  1     0  0
  3  9  1  0     0  0
  3 10  1  0     0  0
  6 11  1  0     0  0
  6 12  1  0     0  0
  6 13  1  6     0  0
 11 14  1  0     0  0
 12 15  1  0     0  0
 14 16  2  0     0  0
 16 17  1  0     0  0
  4  5  1  0     0  0
  7  9  1  0     0  0
 24 25  1  0     0  0
 25 27  1  0     0  0
 10 11  1  0     0  0
 25 26  2  0     0  0
 15 16  1  0     0  0
 13 27  1  0     0  0
  3 18  1  1     0  0
  9 28  1  6     0  0
M  END
> <ID>
CHEBI:4478

> <NAME>
Diacetoxyscirpenol

$$$$



27 31  0  0  1  0  0  0  0  0999 V2000
   18.9507  -14.8190    0.0000 C   0  0  0  0  0  0  0  0  0  0  0  0
   17.8694  -15.5749    0.0000 C   0  0  0  0  0  0  0  0  0  0  0  0
   20.2606  -15.5444    0.0000 C   0  0  0  0  0  0  0  0  0  0  0  0
   18.9604  -13.5574    0.0000 O   0  0  0  0  0  0  0  0  0  0  0  0
   17.8817  -16.8340    0.0000 C   0  0  0  0  0  0  0  0  0  0  0  0
   15.5666  -15.5294    0.0000 C   0  0  1  0  0  0  0  0  0  0  0  0
   20.2089  -16.8217    0.0000 C   0  0  0  0  0  0  0  0  0  0  0  0
   21.3541  -14.7822    0.0000 C   0  0  0  0  0  0  0  0  0  0  0  0
   20.1538  -12.7735    0.0000 C   0  0  0  0  0  0  0  0  0  0  0  0
   19.0514  -17.4954    0.0000 C   0  0  0  0  0  0  0  0  0  0  0  0
   16.7363  -17.5199    0.0000 O   0  0  0  0  0  0  0  0  0  0  0  0
   15.5088  -16.8585    0.0000 C   0  0  1  0  0  0  0  0  0  0  0  0
   13.3339  -15.5479    0.0000 C   0  0  0  0  0  0  0  0  0  0  0  0
   21.4426  -17.4771    0.0000 O   0  0  0  0  0  0  0  0  0  0  0  0
   21.3419  -13.4349    0.0000 C   0  0  0  0  0  0  0  0  0  0  0  0
   22.5118  -15.4376    0.0000 O   0  0  0  0  0  0  0  0  0  0  0  0
   20.1661  -11.4261    0.0000 C   0  0  0  0  0  0  0  0  0  0  0  0
   19.0637  -18.8244    0.0000 O   0  0  0  0  0  0  0  0  0  0  0  0
   14.4336  -17.5384    0.0000 O   0  0  0  0  0  0  0  0  0  0  0  0
   13.2761  -16.8830    0.0000 C   0  0  0  0  0  0  0  0  0  0  0  0
   21.4548  -18.8061    0.0000 C   0  0  0  0  0  0  0  0  0  0  0  0
   22.4418  -12.7245    0.0000 C   0  0  0  0  0  0  0  0  0  0  0  0
   21.2930  -10.7034    0.0000 C   0  0  0  0  0  0  0  0  0  0  0  0
   22.4933  -11.3586    0.0000 C   0  0  0  0  0  0  0  0  0  0  0  0
   23.6053  -13.3736    0.0000 O   0  0  0  0  0  0  0  0  0  0  0  0
   15.5483  -14.1883    0.0000 H   0  0  0  0  0  0  0  0  0  0  0  0
   15.5850  -18.1936    0.0000 H   0  0  0  0  0  0  0  0  0  0  0  0
  1  2  1  0     0  0
  1  3  2  0     0  0
  1  4  1  0     0  0
  2  5  2  0     0  0
  2  6  1  0     0  0
  3  7  1  0     0  0
  3  8  1  0     0  0
  4  9  1  0     0  0
  5 10  1  0     0  0
  5 11  1  0     0  0
  6 12  1  0     0  0
  6 13  1  0     0  0
  7 14  1  0     0  0
  8 15  1  0     0  0
  8 16  2  0     0  0
  9 17  1  0     0  0
 10 18  1  0     0  0
 12 19  1  0     0  0
 13 20  1  0     0  0
 14 21  1  0     0  0
 15 22  1  0     0  0
 17 23  2  0     0  0
 22 24  2  0     0  0
 22 25  1  0     0  0
  7 10  2  0     0  0
  9 15  2  0     0  0
 11 12  1  0     0  0
 19 20  1  0     0  0
 23 24  1  0     0  0
  6 26  1  6     0  0
 12 27  1  6     0  0
M  END
> <ID>
CHEBI:4572

> <NAME>
Dihydromethylsterigmatocystin

$$$$



24 27  0  0  1  0  0  0  0  0999 V2000
   27.3381  -15.9386    0.0000 C   0  0  2  0  0  0  0  0  0  0  0  0
   26.1767  -16.6145    0.0000 C   0  0  1  0  0  0  0  0  0  0  0  0
   27.3440  -14.5925    0.0000 C   0  0  2  0  0  0  0  0  0  0  0  0
   25.9384  -15.9320    0.0000 C   0  0  0  0  0  0  0  0  0  0  0  0
   26.3306  -15.0365    0.0000 O   0  0  0  0  0  0  0  0  0  0  0  0
   25.0080  -15.9329    0.0000 C   0  0  2  0  0  0  0  0  0  0  0  0
   28.6957  -16.6029    0.0000 C   0  0  1  0  0  0  0  0  0  0  0  0
   26.1650  -17.9545    0.0000 C   0  0  0  0  0  0  0  0  0  0  0  0
   26.1825  -13.9225    0.0000 O   0  0  0  0  0  0  0  0  0  0  0  0
   28.6840  -14.5925    0.0000 C   0  0  1  0  0  0  0  0  0  0  0  0
   25.0140  -14.5868    0.0000 C   0  0  2  0  0  0  0  0  0  0  0  0
   23.8397  -16.6086    0.0000 C   0  0  1  0  0  0  0  0  0  0  0  0
   25.0597  -17.2204    0.0000 C   0  0  0  0  0  0  0  0  0  0  0  0
   29.8523  -17.2788    0.0000 O   0  0  0  0  0  0  0  0  0  0  0  0
   29.8408  -13.9167    0.0000 O   0  0  0  0  0  0  0  0  0  0  0  0
   23.8397  -13.9167    0.0000 C   0  0  0  0  0  0  0  0  0  0  0  0
   22.6653  -15.9329    0.0000 C   0  0  0  0  0  0  0  0  0  0  0  0
   23.1276  -17.6463    0.0000 O   0  0  0  0  0  0  0  0  0  0  0  0
   24.5064  -18.4426    0.0000 O   0  0  0  0  0  0  0  0  0  0  0  0
   22.6653  -14.5868    0.0000 C   0  0  0  0  0  0  0  0  0  0  0  0
   21.5026  -16.5969    0.0000 O   0  0  0  0  0  0  0  0  0  0  0  0
   21.5026  -13.9167    0.0000 C   0  0  0  0  0  0  0  0  0  0  0  0
   27.3323  -13.2527    0.0000 H   0  0  0  0  0  0  0  0  0  0  0  0
   25.0048  -13.1801    0.0000 H   0  0  0  0  0  0  0  0  0  0  0  0
  1  2  1  0     0  0
  1  3  1  0     0  0
  1  4  1  0     0  0
  1  5  1  6     0  0
  2  6  1  0     0  0
  2  7  1  0     0  0
  2  8  1  1     0  0
  3  9  1  0     0  0
  3 10  1  0     0  0
  6 11  1  0     0  0
  6 12  1  0     0  0
  6 13  1  6     0  0
  7 14  1  1     0  0
 10 15  1  6     0  0
 11 16  1  0     0  0
 12 17  1  0     0  0
 12 18  1  6     0  0
 13 19  1  0     0  0
 16 20  2  0     0  0
 17 21  2  0     0  0
 20 22  1  0     0  0
  4  5  1  0     0  0
  7 10  1  0     0  0
  9 11  1  0     0  0
 17 20  1  0     0  0
  3 23  1  1     0  0
 11 24  1  6     0  0
M  END
> <ID>
CHEBI:7599

> <NAME>
Nivalenol

$$$$

ISISHOST03240423232D 1   1.00000     0.00000  8758

 41 45  0     1  0            999 V2000
    8.7409   -6.1056    0.0000 C   0  0  1  0  0  0           0  0  0
    8.0508   -6.5000    0.0000 C   0  0  1  0  0  0           0  0  0
    8.7444   -5.3051    0.0000 C   0  0  1  0  0  0           0  0  0
    8.2015   -5.4661    0.0000 O   0  0  0  0  0  0           0  0  0
    7.9130   -6.0915    0.0000 C   0  0  0  0  0  0           0  0  0
    7.3639   -6.1022    0.0000 C   0  0  2  0  0  0           0  0  0
    9.5339   -6.5014    0.0000 C   0  0  1  0  0  0           0  0  0
    8.0439   -7.2930    0.0000 C   0  0  0  0  0  0           0  0  0
    9.5416   -5.3051    0.0000 C   0  0  0  0  0  0           0  0  0
    8.0576   -4.9072    0.0000 O   0  0  0  0  0  0           0  0  0
    7.3674   -5.3016    0.0000 C   0  0  2  0  0  0           0  0  0
    6.6737   -6.4966    0.0000 C   0  0  0  0  0  0           0  0  0
    7.6203   -6.8250    0.0000 C   0  0  0  0  0  0           0  0  0
    6.6737   -4.9038    0.0000 C   0  0  0  0  0  0           0  0  0
    5.9835   -6.1022    0.0000 C   0  0  0  0  0  0           0  0  0
    5.9835   -5.3016    0.0000 C   0  0  0  0  0  0           0  0  0
    5.2932   -4.9038    0.0000 C   0  0  0  0  0  0           0  0  0
    8.7375   -4.5086    0.0000 H   0  0  0  0  0  0           0  0  0
    7.3605   -4.5052    0.0000 H   0  0  0  0  0  0           0  0  0
   10.2610   -6.8702    0.0000 O   0  0  0  0  0  0           0  0  0
   10.9561   -6.4625    0.0000 C   0  0  0  0  0  0           0  0  0
   11.6539   -6.8667    0.0000 C   0  0  0  0  0  0           0  0  0
   10.9561   -5.6583    0.0000 O   0  0  0  0  0  0           0  0  0
   11.6539   -7.6708    0.0000 C   0  0  0  0  0  0           0  0  0
   10.9561   -8.0750    0.0000 C   0  0  0  0  0  0           0  0  0
   10.9561   -8.8792    0.0000 C   0  0  0  0  0  0           0  0  0
   10.2583   -9.2792    0.0000 C   0  0  1  0  0  0           0  0  0
    9.5647   -8.8792    0.0000 O   0  0  0  0  0  0           0  0  0
    8.8669   -9.2792    0.0000 C   0  0  0  0  0  0           0  0  0
    8.1691   -8.8792    0.0000 C   0  0  0  0  0  0           0  0  0
    7.4713   -9.2792    0.0000 C   0  0  2  0  0  0           0  0  0
    6.7735   -8.8792    0.0000 C   0  0  2  0  0  0           0  0  0
   10.2583  -10.0833    0.0000 C   0  0  1  0  0  0           0  0  0
   10.9561  -10.4875    0.0000 C   0  0  0  0  0  0           0  0  0
    9.5647  -10.4875    0.0000 O   0  0  0  0  0  0           0  0  0
   11.0416   -9.7125    0.0000 H   0  0  0  0  0  0           0  0  0
    6.0798   -9.2792    0.0000 O   0  0  0  0  0  0           0  0  0
    6.7735   -8.0750    0.0000 C   0  0  0  0  0  0           0  0  0
    6.0798   -7.6708    0.0000 O   0  0  0  0  0  0           0  0  0
    7.4715   -7.6701    0.0000 O   0  0  0  0  0  0           0  0  0
    7.4713  -10.0833    0.0000 C   0  0  0  0  0  0           0  0  0
 11 19  1  6     0  0
  7 20  1  1     0  0
  1  2  1  0     0  0
 20 21  1  0     0  0
  1  3  1  0     0  0
 21 22  1  0     0  0
  1  4  1  6     0  0
 21 23  2  0     0  0
  1  5  1  0     0  0
 22 24  2  0     0  0
  2  6  1  0     0  0
 24 25  1  0     0  0
  2  7  1  0     0  0
 25 26  2  0     0  0
  2  8  1  1     0  0
 26 27  1  0     0  0
  3  9  1  0     0  0
 27 28  1  0     0  0
  3 10  1  0     0  0
 28 29  1  0     0  0
  6 11  1  0     0  0
 29 30  1  0     0  0
  6 12  1  0     0  0
 30 31  1  0     0  0
  6 13  1  6     0  0
 31 32  1  0     0  0
 11 14  1  0     0  0
 27 33  1  0     0  0
 12 15  1  0     0  0
 33 34  1  0     0  0
 14 16  2  0     0  0
 33 35  1  1     0  0
 16 17  1  0     0  0
 27 36  1  1     0  0
  4  5  1  0     0  0
 32 37  1  6     0  0
  7  9  1  0     0  0
 32 38  1  0     0  0
 38 40  1  0     0  0
 10 11  1  0     0  0
 38 39  2  0     0  0
 15 16  1  0     0  0
 13 40  1  0     0  0
  3 18  1  1     0  0
 31 41  1  1     0  0
M  END
> <ID>
CHEBI:8891

> <NAME>
Roridin A

$$$$



41 47  0  0  1  0  0  0  0  0999 V2000
   22.9373  -18.4296    0.0000 C   0  0  0  0  0  0  0  0  0  0  0  0
   22.9373  -19.7658    0.0000 C   0  0  2  0  0  0  0  0  0  0  0  0
   24.0973  -20.4339    0.0000 C   0  0  0  0  0  0  0  0  0  0  0  0
   24.0973  -17.7615    0.0000 C   0  0  0  0  0  0  0  0  0  0  0  0
   25.1746  -19.7658    0.0000 C   0  0  1  0  0  0  0  0  0  0  0  0
   26.3989  -20.4389    0.0000 C   0  0  0  0  0  0  0  0  0  0  0  0
   27.5591  -19.7757    0.0000 C   0  0  0  0  0  0  0  0  0  0  0  0
   26.4104  -17.7666    0.0000 C   0  0  1  0  0  0  0  0  0  0  0  0
   27.5591  -18.4424    0.0000 C   0  0  0  0  0  0  0  0  0  0  0  0
   27.5809  -15.7770    0.0000 C   0  0  0  0  0  0  0  0  0  0  0  0
   26.4213  -16.4339    0.0000 C   0  0  1  0  0  0  0  0  0  0  0  0
   28.7296  -16.4527    0.0000 C   0  0  1  0  0  0  0  0  0  0  0  0
   28.6954  -17.7834    0.0000 C   0  0  2  0  0  0  0  0  0  0  0  0
   29.9807  -18.2050    0.0000 C   0  0  0  0  0  0  0  0  0  0  0  0
   30.7714  -17.1349    0.0000 C   0  0  0  0  0  0  0  0  0  0  0  0
   29.9984  -16.0520    0.0000 C   0  0  0  0  0  0  0  0  0  0  0  0
   25.2697  -15.7563    0.0000 O   0  0  0  0  0  0  0  0  0  0  0  0
   26.3993  -19.0977    0.0000 O   0  0  0  0  0  0  0  0  0  0  0  0
   25.2317  -21.0953    0.0000 H   0  0  0  0  0  0  0  0  0  0  0  0
   25.2385  -17.0934    0.0000 C   0  0  0  0  0  0  0  0  0  0  0  0
   21.6536  -20.1370    0.0000 O   0  0  0  0  0  0  0  0  0  0  0  0
   29.5078  -19.0758    0.0000 O   0  0  0  0  0  0  0  0  0  0  0  0
   28.7207  -15.1162    0.0000 C   0  0  0  0  0  0  0  0  0  0  0  0
   30.4217  -14.7847    0.0000 C   0  0  2  0  0  0  0  0  0  0  0  0
   31.7309  -14.5176    0.0000 O   0  0  0  0  0  0  0  0  0  0  0  0
   29.8625  -13.4577    0.0000 C   0  0  0  0  0  0  0  0  0  0  0  0
   31.0825  -13.6181    0.0000 H   0  0  0  0  0  0  0  0  0  0  0  0
   29.5710  -17.3297    0.0000 C   0  0  0  0  0  0  0  0  0  0  0  0
   29.7195  -15.1162    0.0000 N   0  0  3  0  0  0  0  0  0  0  0  0
   31.0016  -16.0609    0.0000 C   0  0  0  0  0  0  0  0  0  0  0  0
   32.6168  -15.5179    0.0000 C   0  0  0  0  0  0  0  0  0  0  0  0
   33.9261  -15.2510    0.0000 C   0  0  0  0  0  0  0  0  0  0  0  0
   32.1934  -16.7852    0.0000 O   0  0  0  0  0  0  0  0  0  0  0  0
   34.9124  -16.1507    0.0000 C   0  0  0  0  0  0  0  0  0  0  0  0
   36.0752  -15.4920    0.0000 N   0  0  0  0  0  0  0  0  0  0  0  0
   35.8079  -14.1828    0.0000 C   0  0  0  0  0  0  0  0  0  0  0  0
   34.4803  -14.0322    0.0000 C   0  0  0  0  0  0  0  0  0  0  0  0
   33.8216  -12.8697    0.0000 C   0  0  0  0  0  0  0  0  0  0  0  0
   34.7629  -17.4784    0.0000 C   0  0  0  0  0  0  0  0  0  0  0  0
   28.6279  -13.9547    0.0000 C   0  0  0  0  0  0  0  0  0  0  0  0
   25.2317  -18.4230    0.0000 C   0  0  1  0  0  0  0  0  0  0  0  0
 41  4  1  0     0  0
  5 19  1  1     0  0
  4  1  1  0     0  0
 41 20  1  1     0  0
  2 21  1  1     0  0
  8  9  1  0     0  0
 13 22  1  1     0  0
  9 13  1  0     0  0
 12 23  1  1     0  0
 12 10  1  0     0  0
 16 24  1  0     0  0
 10 11  1  0     0  0
 24 25  1  1     0  0
 11  8  1  0     0  0
 24 26  1  0     0  0
  1  2  1  0     0  0
 24 27  1  6     0  0
  2  3  1  0     0  0
 22 28  1  0     0  0
  5  6  1  0     0  0
 23 29  1  0     0  0
  6  7  1  0     0  0
 29 30  1  0     0  0
 30 28  1  0     0  0
  7  9  2  0     0  0
 25 31  1  0     0  0
 12 13  1  0     0  0
 31 32  1  0     0  0
 13 14  1  0     0  0
 31 33  2  0     0  0
 14 15  1  0     0  0
 15 16  2  0     0  0
 16 12  1  0     0  0
  8 41  1  0     0  0
 32 34  2  0     0  0
 34 35  1  0     0  0
 35 36  1  0     0  0
 36 37  2  0     0  0
 37 32  1  0     0  0
 11 17  1  6     0  0
 37 38  1  0     0  0
  3  5  1  0     0  0
 34 39  1  0     0  0
  8 18  1  6     0  0
 29 40  1  0     0  0
  2 18  1  6     0  0
  5 41  1  0     0  0
M  END
> <ID>
CHEBI:34554

> <NAME>
Batrachotoxin

$$$$



27 30  0  0  1  0  0  0  0  0999 V2000
   25.6200  -15.4000    0.0000 C   0  0  2  0  0  0  0  0  0  0  0  0
   24.4300  -16.1000    0.0000 C   0  0  1  0  0  0  0  0  0  0  0  0
   25.6200  -14.0700    0.0000 C   0  0  2  0  0  0  0  0  0  0  0  0
   24.2200  -15.4000    0.0000 C   0  0  0  0  0  0  0  0  0  0  0  0
   24.6400  -14.4900    0.0000 O   0  0  0  0  0  0  0  0  0  0  0  0
   23.3100  -15.4000    0.0000 C   0  0  2  0  0  0  0  0  0  0  0  0
   26.9500  -16.1000    0.0000 C   0  0  1  0  0  0  0  0  0  0  0  0
   24.4300  -17.4300    0.0000 C   0  0  0  0  0  0  0  0  0  0  0  0
   24.4300  -13.3700    0.0000 O   0  0  0  0  0  0  0  0  0  0  0  0
   26.9500  -14.0700    0.0000 C   0  0  1  0  0  0  0  0  0  0  0  0
   23.3100  -14.0700    0.0000 C   0  0  2  0  0  0  0  0  0  0  0  0
   22.1200  -16.0300    0.0000 C   0  0  1  0  0  0  0  0  0  0  0  0
   23.3100  -16.6600    0.0000 C   0  0  0  0  0  0  0  0  0  0  0  0
   28.1400  -16.7300    0.0000 O   0  0  0  0  0  0  0  0  0  0  0  0
   28.1400  -13.3700    0.0000 O   0  0  0  0  0  0  0  0  0  0  0  0
   22.1200  -13.3700    0.0000 C   0  0  0  0  0  0  0  0  0  0  0  0
   20.9300  -15.4000    0.0000 C   0  0  0  0  0  0  0  0  0  0  0  0
   21.4200  -17.0800    0.0000 O   0  0  0  0  0  0  0  0  0  0  0  0
   22.7500  -17.9200    0.0000 O   0  0  0  0  0  0  0  0  0  0  0  0
   20.9300  -14.0700    0.0000 C   0  0  0  0  0  0  0  0  0  0  0  0
   19.7400  -16.0300    0.0000 O   0  0  0  0  0  0  0  0  0  0  0  0
   19.7400  -13.3700    0.0000 C   0  0  0  0  0  0  0  0  0  0  0  0
   25.6200  -12.7400    0.0000 H   0  0  0  0  0  0  0  0  0  0  0  0
   23.3100  -12.6000    0.0000 H   0  0  0  0  0  0  0  0  0  0  0  0
   29.3259  -15.9860    0.0000 C   0  0  0  0  0  0  0  0  0  0  0  0
   30.5555  -16.6368    0.0000 C   0  0  0  0  0  0  0  0  0  0  0  0
   29.3434  -14.5611    0.0000 O   0  0  0  0  0  0  0  0  0  0  0  0
  1  2  1  0     0  0
  1  3  1  0     0  0
  1  4  1  0     0  0
  1  5  1  6     0  0
  2  6  1  0     0  0
  2  7  1  0     0  0
  2  8  1  1     0  0
  3  9  1  0     0  0
  3 10  1  0     0  0
  6 11  1  0     0  0
  6 12  1  0     0  0
  6 13  1  6     0  0
  7 14  1  1     0  0
 10 15  1  6     0  0
 11 16  1  0     0  0
 12 17  1  0     0  0
 12 18  1  6     0  0
 13 19  1  0     0  0
 16 20  2  0     0  0
 17 21  2  0     0  0
 20 22  1  0     0  0
  4  5  1  0     0  0
  7 10  1  0     0  0
  9 11  1  0     0  0
 17 20  1  0     0  0
  3 23  1  1     0  0
 11 24  1  6     0  0
 14 25  1  0     0  0
 25 26  1  0     0  0
 25 27  2  0     0  0
M  END
> <ID>
CHEBI:82577

> <NAME>
Fusarenone X

$$$$
null
  CDK     0225161911
null
 34 38  0  0  0  0  0  0  0  0999 V2000
    4.6987   -0.0914    0.0000 C   0  0  0  0  0  0  0  0  0  0  0  0
    3.9488    0.2523    0.0000 C   0  0  0  0  0  0  0  0  0  0  0  0
    3.2761   -0.2252    0.0000 C   0  0  0  0  0  0  0  0  0  0  0  0
    2.5261    0.1185    0.0000 C   0  0  0  0  0  0  0  0  0  0  0  0
    2.4489    0.9399    0.0000 C   0  0  2  0  0  0  0  0  0  0  0  0
    3.1216    1.4175    0.0000 C   0  0  0  0  0  0  0  0  0  0  0  0
    3.8715    1.0737    0.0000 C   0  0  0  0  0  0  0  0  0  0  0  0
    1.7585    1.3916    0.0000 C   0  0  1  0  0  0  0  0  0  0  0  0
    0.9749    1.1335    0.0000 C   0  0  1  0  0  0  0  0  0  0  0  0
    0.6882    0.3600    0.0000 C   0  0  2  0  0  0  0  0  0  0  0  0
    1.1141   -0.3465    0.0000 C   0  0  2  0  0  0  0  0  0  0  0  0
    1.6536    0.4420    0.0000 C   0  0  0  0  0  0  0  0  0  0  0  0
    2.4669    0.5804    0.0000 C   0  0  0  0  0  0  0  0  0  0  0  0
    2.1801   -0.1931    0.0000 O   0  0  0  0  0  0  0  0  0  0  0  0
    1.9321   -0.4540    0.0000 O   0  0  0  0  0  0  0  0  0  0  0  0
   -0.1332    0.2827    0.0000 O   0  0  0  0  0  0  0  0  0  0  0  0
    0.4024    1.7275    0.0000 O   0  0  0  0  0  0  0  0  0  0  0  0
   -0.3983    1.5287    0.0000 C   0  0  2  0  0  0  0  0  0  0  0  0
   -0.9708    2.1227    0.0000 C   0  0  1  0  0  0  0  0  0  0  0  0
   -1.7715    1.9239    0.0000 C   0  0  2  0  0  0  0  0  0  0  0  0
   -1.9996    1.1311    0.0000 C   0  0  1  0  0  0  0  0  0  0  0  0
   -1.4271    0.5371    0.0000 C   0  0  2  0  0  0  0  0  0  0  0  0
   -0.6264    0.7359    0.0000 O   0  0  0  0  0  0  0  0  0  0  0  0
   -1.6553   -0.2557    0.0000 C   0  0  0  0  0  0  0  0  0  0  0  0
   -2.4560   -0.4545    0.0000 O   0  0  0  0  0  0  0  0  0  0  0  0
   -2.8003    0.9323    0.0000 O   0  0  0  0  0  0  0  0  0  0  0  0
   -2.3440    2.5179    0.0000 O   0  0  0  0  0  0  0  0  0  0  0  0
   -0.7426    2.9156    0.0000 O   0  0  0  0  0  0  0  0  0  0  0  0
    1.8660    2.2096    0.0000 C   0  0  0  0  0  0  0  0  0  0  0  0
    2.4332    1.7648    0.0000 C   0  0  0  0  0  0  0  0  0  0  0  0
    3.1397    2.1907    0.0000 O   0  0  0  0  0  0  0  0  0  0  0  0
    3.1241    3.0156    0.0000 C   0  0  0  0  0  0  0  0  0  0  0  0
    2.4019    3.4145    0.0000 O   0  0  0  0  0  0  0  0  0  0  0  0
    3.8306    3.4416    0.0000 C   0  0  0  0  0  0  0  0  0  0  0  0
  1  2  1  0  0  0  0 
  2  3  2  0  0  0  0 
  3  4  1  0  0  0  0 
  4  5  1  0  0  0  0 
  5  6  1  0  0  0  0 
  6  7  1  0  0  0  0 
  7  2  1  0  0  0  0 
  5  8  1  0  0  0  0 
  8  9  1  0  0  0  0 
  9 10  1  0  0  0  0 
 10 11  1  0  0  0  0 
 11 12  1  0  0  0  0 
  8 12  1  1  0  0  0 
 12 13  1  0  0  0  0 
 13 14  1  0  0  0  0 
 14 12  1  0  0  0  0 
 11 15  1  6  0  0  0 
 15  4  1  0  0  0  0 
 10 16  1  6  0  0  0 
  9 17  1  1  0  0  0 
 18 17  1  1  0  0  0 
 18 19  1  0  0  0  0 
 19 20  1  0  0  0  0 
 20 21  1  0  0  0  0 
 21 22  1  0  0  0  0 
 22 23  1  0  0  0  0 
 23 18  1  0  0  0  0 
 22 24  1  6  0  0  0 
 24 25  1  0  0  0  0 
 21 26  1  1  0  0  0 
 20 27  1  6  0  0  0 
 19 28  1  1  0  0  0 
  8 29  1  1  0  0  0 
  5 30  1  6  0  0  0 
 30 31  1  0  0  0  0 
 31 32  1  0  0  0  0 
 32 33  2  0  0  0  0 
 32 34  1  0  0  0  0 
M  END
> <ID>
CHEBI:125157

> <NAME>
LSM-36622

$$$$

Ketcher 10261712322D 1   1.00000     0.00000     0

 39 44  0     1  0            999 V2000
   17.9685  -15.4741    0.0000 C   0  0  0  0  0  0  0  0  0  0  0  0
   17.9685  -16.3980    0.0000 C   0  0  0  0  0  0  0  0  0  0  0  0
   18.7685  -16.8599    0.0000 C   0  0  0  0  0  0  0  0  0  0  0  0
   19.5686  -16.3980    0.0000 C   0  0  0  0  0  0  0  0  0  0  0  0
   19.5686  -15.4741    0.0000 C   0  0  0  0  0  0  0  0  0  0  0  0
   18.7685  -15.0122    0.0000 C   0  0  0  0  0  0  0  0  0  0  0  0
   20.3687  -16.8599    0.0000 O   0  0  0  0  0  0  0  0  0  0  0  0
   21.1687  -16.3980    0.0000 C   0  0  0  0  0  0  0  0  0  0  0  0
   21.1687  -15.4741    0.0000 C   0  0  0  0  0  0  0  0  0  0  0  0
   20.3687  -15.0122    0.0000 C   0  0  0  0  0  0  0  0  0  0  0  0
   17.1684  -16.8599    0.0000 C   0  0  0  0  0  0  0  0  0  0  0  0
   19.5686  -17.3218    0.0000 H   0  0  0  0  0  0  0  0  0  0  0  0
   19.3295  -14.5818    0.0000 C   0  0  0  0  0  0  0  0  0  0  0  0
   17.7590  -14.5818    0.0000 O   0  0  0  0  0  0  0  0  0  0  0  0
   17.2756  -13.7965    0.0000 C   0  0  0  0  0  0  0  0  0  0  0  0
   17.7375  -12.9964    0.0000 C   0  0  0  0  0  0  0  0  0  0  0  0
   16.3518  -13.8095    0.0000 O   0  0  0  0  0  0  0  0  0  0  0  0
   17.7375  -12.0725    0.0000 C   0  0  0  0  0  0  0  0  0  0  0  0
   18.5447  -11.6067    0.0000 C   0  0  0  0  0  0  0  0  0  0  0  0
   18.5449  -10.6828    0.0000 C   0  0  0  0  0  0  0  0  0  0  0  0
   17.7448  -10.2208    0.0000 O   0  0  0  0  0  0  0  0  0  0  0  0
   16.9377  -10.6867    0.0000 C   0  0  0  0  0  0  0  0  0  0  0  0
   16.9375  -11.6106    0.0000 C   0  0  0  0  0  0  0  0  0  0  0  0
   19.4466  -10.6758    0.0000 C   0  0  0  0  0  0  0  0  0  0  0  0
   19.9037  -11.4786    0.0000 C   0  0  0  0  0  0  0  0  0  0  0  0
   20.8275  -11.4841    0.0000 C   0  0  0  0  0  0  0  0  0  0  0  0
   21.2846  -12.2869    0.0000 C   0  0  0  0  0  0  0  0  0  0  0  0
   22.2085  -12.2925    0.0000 C   0  0  0  0  0  0  0  0  0  0  0  0
   22.6799  -11.4868    0.0000 O   0  0  0  0  0  0  0  0  0  0  0  0
   21.4458  -14.1808    0.0000 C   0  0  0  0  0  0  0  0  0  0  0  0
   20.3687  -15.9361    0.0000 C   0  0  0  0  0  0  0  0  0  0  0  0
   20.0453  -14.0736    0.0000 C   0  0  0  0  0  0  0  0  0  0  0  0
   21.9688  -15.0122    0.0000 C   0  0  0  0  0  0  0  0  0  0  0  0
   21.9688  -15.9361    0.0000 O   0  0  0  0  0  0  0  0  0  0  0  0
   22.9240  -13.2108    0.0000 O   0  0  0  0  0  0  0  0  0  0  0  0
   19.3228  -12.0560    0.0000 O   0  0  0  0  0  0  0  0  0  0  0  0
   18.7823   -9.7836    0.0000 C   0  0  0  0  0  0  0  0  0  0  0  0
   19.6877   -9.5372    0.0000 O   0  0  0  0  0  0  0  0  0  0  0  0
   18.1400   -9.1460    0.0000 C   0  0  0  0  0  0  0  0  0  0  0  0
  1  2  1  0     0  0
  2  3  2  0     0  0
  3  4  1  0     0  0
  4  5  1  0     0  0
  5  6  1  0     0  0
  1  6  1  0     0  0
  4  7  1  0     0  0
  7  8  1  0     0  0
  8  9  1  0     0  0
  9 10  1  0     0  0
  5 10  1  0     0  0
  2 11  1  0     0  0
  4 12  1  1     0  0
  5 13  1  1     0  0
 13 14  1  0     0  0
 14 15  1  0     0  0
 15 16  1  0     0  0
 15 17  2  0     0  0
 16 18  2  0     0  0
 18 19  1  0     0  0
 19 20  1  0     0  0
 20 21  1  0     0  0
 21 22  1  0     0  0
 22 23  1  0     0  0
 18 23  1  0     0  0
 20 24  1  6     0  0
 24 25  2  0     0  0
 25 26  1  0     0  0
 26 27  2  0     0  0
 27 28  1  0     0  0
 28 29  2  0     0  0
 10 30  1  1     0  0
  8 31  1  1     0  0
 10 32  1  6     0  0
  9 33  1  6     0  0
  9 34  1  1     0  0
 33 34  1  0     0  0
 31 30  1  0     0  0
 30 35  1  0     0  0
 28 35  1  0     0  0
 19 36  1  6     0  0
 20 37  1  0     0  0
 37 38  1  6     0  0
 37 39  1  0     0  0
M  END
> <ID>
CHEBI:138853

> <NAME>
Satratoxin H

$$$$

Ketcher 04092015432D 1   1.00000     0.00000     0

 27 30  0     1  0            999 V2000
   10.4177   -3.8047    0.0000 C   0  0  0  0  0  0  0  0  0  0  0  0
   13.0709   -3.5556    0.0000 O   0  0  0  0  0  0  0  0  0  0  0  0
   12.7426   -4.1486    0.0000 C   0  0  0  0  0  0  0  0  0  0  0  0
   11.9515   -4.5985    0.0000 C   0  0  0  0  0  0  0  0  0  0  0  0
   12.7467   -3.2284    0.0000 C   0  0  0  0  0  0  0  0  0  0  0  0
   11.1632   -4.1405    0.0000 C   0  0  0  0  0  0  0  0  0  0  0  0
   13.6798   -4.6035    0.0000 C   0  0  0  0  0  0  0  0  0  0  0  0
   11.9435   -5.5065    0.0000 C   0  0  0  0  0  0  0  0  0  0  0  0
   11.9596   -2.7657    0.0000 O   0  0  0  0  0  0  0  0  0  0  0  0
   13.6587   -3.2284    0.0000 C   0  0  0  0  0  0  0  0  0  0  0  0
   11.1672   -3.2204    0.0000 C   0  0  0  0  0  0  0  0  0  0  0  0
   10.3754   -4.5945    0.0000 C   0  0  0  0  0  0  0  0  0  0  0  0
   11.4049   -5.0778    0.0000 C   0  0  0  0  0  0  0  0  0  0  0  0
   14.3106   -2.5764    0.0000 O   0  0  0  0  0  0  0  0  0  0  0  0
   10.3754   -2.7615    0.0000 C   0  0  0  0  0  0  0  0  0  0  0  0
    9.5847   -4.1405    0.0000 C   0  0  0  0  0  0  0  0  0  0  0  0
    9.7163   -5.2416    0.0000 O   0  0  0  0  0  0  0  0  0  0  0  0
   10.9801   -5.7874    0.0000 O   0  0  0  0  0  0  0  0  0  0  0  0
    9.5847   -3.2204    0.0000 C   0  0  0  0  0  0  0  0  0  0  0  0
    8.7881   -4.5945    0.0000 O   0  0  0  0  0  0  0  0  0  0  0  0
    8.7881   -2.7615    0.0000 C   0  0  0  0  0  0  0  0  0  0  0  0
   12.7385   -2.3074    0.0000 H   0  0  0  0  0  0  0  0  0  0  0  0
   11.1591   -2.3034    0.0000 H   0  0  0  0  0  0  0  0  0  0  0  0
   10.3751   -1.8474    0.0000 S   0  0  0  0  0  0  0  0  0  0  0  0
   10.3748   -0.9332    0.0000 O   0  0  0  0  0  0  0  0  0  0  0  0
    9.4609   -1.8476    0.0000 O   0  0  0  0  0  0  0  0  0  0  0  0
   11.2892   -1.8470    0.0000 O   0  0  0  0  0  0  0  0  0  0  0  0
  3  4  1  0     0  0
  3  5  1  0     0  0
  3  2  1  6     0  0
  4  6  1  0     0  0
  4  7  1  0     0  0
  4  8  1  1     0  0
  5  9  1  0     0  0
  5 10  1  0     0  0
  6 11  1  0     0  0
  6 12  1  0     0  0
  6 13  1  6     0  0
 10 14  1  6     0  0
 11 15  1  0     0  0
 12 16  1  0     0  0
 12 17  1  6     0  0
 13 18  1  0     0  0
 15 19  1  0     0  0
 16 20  2  0     0  0
 19 21  1  6     0  0
  7 10  1  0     0  0
  9 11  1  0     0  0
 16 19  1  0     0  0
  5 22  1  1     0  0
 11 23  1  6     0  0
  3  1  1  1     0  0
 15 24  1  6     0  0
 24 25  1  0     0  0
 24 26  2  0     0  0
 24 27  2  0     0  0
 19  1  1  1     0  0
M  END
> <ID>
CHEBI:149440

> <NAME>
DON-sulfonate 1

$$$$

Ketcher 04092015592D 1   1.00000     0.00000     0

 27 31  0     1  0            999 V2000
   22.9046   -4.8710    0.0000 C   0  0  0  0  0  0  0  0  0  0  0  0
   22.8728   -3.9275    0.0000 O   0  0  0  0  0  0  0  0  0  0  0  0
   22.2293   -4.5974    0.0000 C   0  0  0  0  0  0  0  0  0  0  0  0
   21.3725   -5.0846    0.0000 C   0  0  0  0  0  0  0  0  0  0  0  0
   22.2336   -3.6008    0.0000 C   0  0  0  0  0  0  0  0  0  0  0  0
   20.5188   -4.5887    0.0000 C   0  0  0  0  0  0  0  0  0  0  0  0
   23.2442   -5.0900    0.0000 C   0  0  0  0  0  0  0  0  0  0  0  0
   21.3639   -6.0680    0.0000 C   0  0  0  0  0  0  0  0  0  0  0  0
   21.3813   -3.0997    0.0000 O   0  0  0  0  0  0  0  0  0  0  0  0
   23.2213   -3.6008    0.0000 C   0  0  0  0  0  0  0  0  0  0  0  0
   20.5232   -3.5921    0.0000 C   0  0  0  0  0  0  0  0  0  0  0  0
   19.6656   -5.0803    0.0000 C   0  0  0  0  0  0  0  0  0  0  0  0
   19.9636   -3.9320    0.0000 C   0  0  0  0  0  0  0  0  0  0  0  0
   23.9274   -2.8948    0.0000 O   0  0  0  0  0  0  0  0  0  0  0  0
   19.6656   -3.0953    0.0000 C   0  0  0  0  0  0  0  0  0  0  0  0
   18.8093   -4.5887    0.0000 C   0  0  0  0  0  0  0  0  0  0  0  0
   19.6525   -5.9797    0.0000 O   0  0  0  0  0  0  0  0  0  0  0  0
   19.2720   -3.9567    0.0000 O   0  0  0  0  0  0  0  0  0  0  0  0
   18.8093   -3.5921    0.0000 C   0  0  0  0  0  0  0  0  0  0  0  0
   17.9467   -5.0803    0.0000 O   0  0  0  0  0  0  0  0  0  0  0  0
   17.9467   -3.0953    0.0000 C   0  0  0  0  0  0  0  0  0  0  0  0
   22.2249   -2.6034    0.0000 H   0  0  0  0  0  0  0  0  0  0  0  0
   20.5143   -2.5991    0.0000 H   0  0  0  0  0  0  0  0  0  0  0  0
   19.6653   -2.1052    0.0000 S   0  0  0  0  0  0  0  0  0  0  0  0
   19.6650   -1.1152    0.0000 O   0  0  0  0  0  0  0  0  0  0  0  0
   18.6752   -2.1055    0.0000 O   0  0  0  0  0  0  0  0  0  0  0  0
   20.6553   -2.1048    0.0000 O   0  0  0  0  0  0  0  0  0  0  0  0
  1  2  1  0     0  0
  3  4  1  0     0  0
  3  5  1  0     0  0
  3  2  1  0     0  0
  4  6  1  0     0  0
  4  7  1  0     0  0
  4  8  1  1     0  0
  5  9  1  0     0  0
  5 10  1  0     0  0
  6 11  1  0     0  0
  6 12  1  0     0  0
  6 13  1  6     0  0
 10 14  1  6     0  0
 11 15  1  0     0  0
 12 16  1  0     0  0
 12 17  1  6     0  0
 13 18  1  0     0  0
 15 19  1  0     0  0
 16 20  1  1     0  0
 19 21  1  1     0  0
  7 10  1  0     0  0
  9 11  1  0     0  0
 16 19  1  0     0  0
  5 22  1  1     0  0
 11 23  1  6     0  0
  3  1  1  1     0  0
 15 24  1  6     0  0
 24 25  1  0     0  0
 24 26  2  0     0  0
 24 27  2  0     0  0
 16 18  1  6     0  0
M  END
> <ID>
CHEBI:149442

> <NAME>
DON-sulfonate 2

$$$$

Ketcher 04092017312D 1   1.00000     0.00000     0

 27 31  0     1  0            999 V2000
    7.4218  -12.6840    0.0000 C   0  0  0  0  0  0  0  0  0  0  0  0
    7.3900  -11.7405    0.0000 O   0  0  0  0  0  0  0  0  0  0  0  0
    6.7465  -12.4105    0.0000 C   0  0  0  0  0  0  0  0  0  0  0  0
    5.8897  -12.8977    0.0000 C   0  0  0  0  0  0  0  0  0  0  0  0
    6.7508  -11.4139    0.0000 C   0  0  0  0  0  0  0  0  0  0  0  0
    5.0360  -12.4017    0.0000 C   0  0  0  0  0  0  0  0  0  0  0  0
    7.7614  -12.9031    0.0000 C   0  0  0  0  0  0  0  0  0  0  0  0
    5.8812  -13.8810    0.0000 C   0  0  0  0  0  0  0  0  0  0  0  0
    5.8986  -10.9128    0.0000 O   0  0  0  0  0  0  0  0  0  0  0  0
    7.7385  -11.4139    0.0000 C   0  0  0  0  0  0  0  0  0  0  0  0
    5.0404  -11.4052    0.0000 C   0  0  0  0  0  0  0  0  0  0  0  0
    4.1828  -12.8934    0.0000 C   0  0  0  0  0  0  0  0  0  0  0  0
    4.4807  -11.7450    0.0000 C   0  0  0  0  0  0  0  0  0  0  0  0
    8.4446  -10.7078    0.0000 O   0  0  0  0  0  0  0  0  0  0  0  0
    4.1828  -10.9082    0.0000 C   0  0  0  0  0  0  0  0  0  0  0  0
    3.3266  -12.4017    0.0000 C   0  0  0  0  0  0  0  0  0  0  0  0
    4.1697  -13.7928    0.0000 O   0  0  0  0  0  0  0  0  0  0  0  0
    3.7893  -11.7697    0.0000 O   0  0  0  0  0  0  0  0  0  0  0  0
    3.3266  -11.4052    0.0000 C   0  0  0  0  0  0  0  0  0  0  0  0
    2.4639  -12.8934    0.0000 O   0  0  0  0  0  0  0  0  0  0  0  0
    2.4639  -10.9082    0.0000 C   0  0  0  0  0  0  0  0  0  0  0  0
    6.7421  -10.4165    0.0000 H   0  0  0  0  0  0  0  0  0  0  0  0
    5.0316  -10.4122    0.0000 H   0  0  0  0  0  0  0  0  0  0  0  0
    4.1825   -9.9182    0.0000 S   0  0  0  0  0  0  0  0  0  0  0  0
    4.1822   -8.9281    0.0000 O   0  0  0  0  0  0  0  0  0  0  0  0
    3.1925   -9.9185    0.0000 O   0  0  0  0  0  0  0  0  0  0  0  0
    5.1726   -9.9179    0.0000 O   0  0  0  0  0  0  0  0  0  0  0  0
  1  2  1  0     0  0
  3  4  1  0     0  0
  3  5  1  0     0  0
  3  2  1  0     0  0
  4  6  1  0     0  0
  4  7  1  0     0  0
  4  8  1  1     0  0
  5  9  1  0     0  0
  5 10  1  0     0  0
  6 11  1  0     0  0
  6 12  1  0     0  0
  6 13  1  6     0  0
 10 14  1  6     0  0
 11 15  1  0     0  0
 12 16  1  0     0  0
 12 17  1  6     0  0
 13 18  1  0     0  0
 15 19  1  0     0  0
 16 20  1  1     0  0
 19 21  1  6     0  0
  7 10  1  0     0  0
  9 11  1  0     0  0
 16 19  1  0     0  0
  5 22  1  1     0  0
 11 23  1  6     0  0
  3  1  1  1     0  0
 15 24  1  6     0  0
 24 25  1  0     0  0
 24 26  2  0     0  0
 24 27  2  0     0  0
 16 18  1  6     0  0
M  END
> <ID>
CHEBI:149446

> <NAME>
DON-sulfonate 3

$$$$

Ketcher 04092017502D 1   1.00000     0.00000     0

 30 33  0     1  0            999 V2000
   16.9814  -13.7586    0.0000 C   0  0  0  0  0  0  0  0  0  0  0  0
   16.9501  -12.8312    0.0000 O   0  0  0  0  0  0  0  0  0  0  0  0
   16.3175  -13.4897    0.0000 C   0  0  0  0  0  0  0  0  0  0  0  0
   15.4753  -13.9686    0.0000 C   0  0  0  0  0  0  0  0  0  0  0  0
   16.3218  -12.5101    0.0000 C   0  0  0  0  0  0  0  0  0  0  0  0
   14.6360  -13.4810    0.0000 C   0  0  0  0  0  0  0  0  0  0  0  0
   17.3152  -13.9739    0.0000 C   0  0  0  0  0  0  0  0  0  0  0  0
   15.4669  -14.9353    0.0000 C   0  0  0  0  0  0  0  0  0  0  0  0
   15.4840  -12.0174    0.0000 O   0  0  0  0  0  0  0  0  0  0  0  0
   17.2927  -12.5101    0.0000 C   0  0  0  0  0  0  0  0  0  0  0  0
   14.6404  -12.5015    0.0000 C   0  0  0  0  0  0  0  0  0  0  0  0
   13.7974  -13.9644    0.0000 C   0  0  0  0  0  0  0  0  0  0  0  0
   17.9868  -11.8159    0.0000 O   0  0  0  0  0  0  0  0  0  0  0  0
   13.7974  -12.0130    0.0000 C   0  0  0  0  0  0  0  0  0  0  0  0
   12.9556  -13.4810    0.0000 C   0  0  0  0  0  0  0  0  0  0  0  0
   13.2283  -14.6294    0.0000 O   0  0  0  0  0  0  0  0  0  0  0  0
   12.9556  -12.5015    0.0000 C   0  0  0  0  0  0  0  0  0  0  0  0
   12.1077  -13.9644    0.0000 O   0  0  0  0  0  0  0  0  0  0  0  0
   12.1077  -12.0130    0.0000 C   0  0  0  0  0  0  0  0  0  0  0  0
   16.3132  -11.5295    0.0000 H   0  0  0  0  0  0  0  0  0  0  0  0
   14.6317  -11.5253    0.0000 H   0  0  0  0  0  0  0  0  0  0  0  0
   13.7971  -11.0397    0.0000 S   0  0  0  0  0  0  0  0  0  0  0  0
   12.9540  -10.5534    0.0000 C   0  0  0  0  0  0  0  0  0  0  0  0
   12.9537   -9.5802    0.0000 C   0  0  0  0  0  0  0  0  0  0  0  0
   13.7964   -9.0932    0.0000 N   0  0  0  0  0  0  0  0  0  0  0  0
   12.1107   -9.0938    0.0000 C   0  0  0  0  0  0  0  0  0  0  0  0
   12.1104   -8.1205    0.0000 O   0  0  0  0  0  0  0  0  0  0  0  0
   11.2680   -9.5807    0.0000 O   0  0  0  0  0  0  0  0  0  0  0  0
   14.8934  -14.4789    0.0000 C   0  0  0  0  0  0  0  0  0  0  0  0
   14.4413  -15.2343    0.0000 O   0  0  0  0  0  0  0  0  0  0  0  0
  1  2  1  0     0  0
  3  4  1  0     0  0
  3  5  1  0     0  0
  3  2  1  0     0  0
  4  6  1  0     0  0
  4  7  1  0     0  0
  4  8  1  1     0  0
  5  9  1  0     0  0
  5 10  1  0     0  0
  6 11  1  0     0  0
  6 12  1  0     0  0
 10 13  1  6     0  0
 11 14  1  0     0  0
 12 15  1  0     0  0
 12 16  1  6     0  0
 14 17  1  0     0  0
 15 18  2  0     0  0
 17 19  1  6     0  0
  7 10  1  0     0  0
  9 11  1  0     0  0
 15 17  1  0     0  0
  5 20  1  1     0  0
 11 21  1  6     0  0
  3  1  1  1     0  0
 14 22  1  1     0  0
 22 23  1  0     0  0
 23 24  1  0     0  0
 24 25  1  1     0  0
 24 26  1  0     0  0
 26 27  1  0     0  0
 26 28  2  0     0  0
  6 29  1  6     0  0
 29 30  1  0     0  0
M  END
> <ID>
CHEBI:149447

> <NAME>
DON-10-S-cysteine

$$$$

Ketcher 04092018022D 1   1.00000     0.00000     0

 31 33  0     1  0            999 V2000
   24.3763  -12.7431    0.0000 O   0  0  0  0  0  0  0  0  0  0  0  0
   23.9239  -13.1484    0.0000 C   0  0  0  0  0  0  0  0  0  0  0  0
   23.0780  -13.6066    0.0000 C   0  0  0  0  0  0  0  0  0  0  0  0
   23.8964  -12.1965    0.0000 C   0  0  0  0  0  0  0  0  0  0  0  0
   22.2666  -13.1352    0.0000 C   0  0  0  0  0  0  0  0  0  0  0  0
   24.8568  -13.6117    0.0000 C   0  0  0  0  0  0  0  0  0  0  0  0
   23.0698  -14.5412    0.0000 C   0  0  0  0  0  0  0  0  0  0  0  0
   23.0864  -11.7202    0.0000 O   0  0  0  0  0  0  0  0  0  0  0  0
   24.8350  -12.1965    0.0000 C   0  0  0  0  0  0  0  0  0  0  0  0
   22.2708  -12.1882    0.0000 C   0  0  0  0  0  0  0  0  0  0  0  0
   21.4558  -13.6025    0.0000 C   0  0  0  0  0  0  0  0  0  0  0  0
   25.5060  -11.5254    0.0000 O   0  0  0  0  0  0  0  0  0  0  0  0
   21.4558  -11.7159    0.0000 C   0  0  0  0  0  0  0  0  0  0  0  0
   20.6420  -13.1352    0.0000 C   0  0  0  0  0  0  0  0  0  0  0  0
   20.9056  -14.2454    0.0000 O   0  0  0  0  0  0  0  0  0  0  0  0
   20.6420  -12.1882    0.0000 C   0  0  0  0  0  0  0  0  0  0  0  0
   19.8222  -13.6025    0.0000 O   0  0  0  0  0  0  0  0  0  0  0  0
   19.8222  -11.7159    0.0000 C   0  0  0  0  0  0  0  0  0  0  0  0
   23.8880  -11.2486    0.0000 H   0  0  0  0  0  0  0  0  0  0  0  0
   22.2624  -11.2445    0.0000 H   0  0  0  0  0  0  0  0  0  0  0  0
   21.4555  -10.7750    0.0000 H   0  0  0  0  0  0  0  0  0  0  0  0
   22.5154  -14.0999    0.0000 C   0  0  0  0  0  0  0  0  0  0  0  0
   22.0782  -14.8302    0.0000 O   0  0  0  0  0  0  0  0  0  0  0  0
   22.9483  -12.6790    0.0000 C   0  0  0  0  0  0  0  0  0  0  0  0
   22.6635  -10.8529    0.0000 S   0  0  0  0  0  0  0  0  0  0  0  0
   21.8485  -10.3827    0.0000 C   0  0  0  0  0  0  0  0  0  0  0  0
   21.8482   -9.4418    0.0000 C   0  0  0  0  0  0  0  0  0  0  0  0
   22.6629   -8.9711    0.0000 N   0  0  0  0  0  0  0  0  0  0  0  0
   21.0332   -8.9716    0.0000 C   0  0  0  0  0  0  0  0  0  0  0  0
   21.0329   -8.0306    0.0000 O   0  0  0  0  0  0  0  0  0  0  0  0
   20.2185   -9.4423    0.0000 O   0  0  0  0  0  0  0  0  0  0  0  0
  2  3  1  0     0  0
  2  4  1  0     0  0
  2  1  1  0     0  0
  3  5  1  0     0  0
  3  6  1  0     0  0
  3  7  1  1     0  0
  4  8  1  0     0  0
  4  9  1  0     0  0
  5 10  1  0     0  0
  5 11  1  0     0  0
  9 12  1  6     0  0
 10 13  1  0     0  0
 11 14  1  0     0  0
 11 15  1  6     0  0
 13 16  1  0     0  0
 14 17  2  0     0  0
 16 18  1  0     0  0
  6  9  1  0     0  0
  8 10  1  0     0  0
 14 16  1  0     0  0
  4 19  1  1     0  0
 10 20  1  6     0  0
 13 21  1  1     0  0
  5 22  1  6     0  0
 22 23  1  0     0  0
  2 24  1  1     0  0
 24 25  1  0     0  0
 25 26  1  0     0  0
 26 27  1  0     0  0
 27 28  1  1     0  0
 27 29  1  0     0  0
 29 30  1  0     0  0
 29 31  2  0     0  0
M  END
> <ID>
CHEBI:149448

> <NAME>
DON-13-S-cysteine

$$$$

Ketcher 04092018262D 1   1.00000     0.00000     0

 27 30  0     1  0            999 V2000
    6.6464  -20.9538    0.0000 C   0  0  0  0  0  0  0  0  0  0  0  0
    6.6151  -20.0286    0.0000 O   0  0  0  0  0  0  0  0  0  0  0  0
    5.9841  -20.6856    0.0000 C   0  0  0  0  0  0  0  0  0  0  0  0
    5.1440  -21.1633    0.0000 C   0  0  0  0  0  0  0  0  0  0  0  0
    5.9884  -19.7083    0.0000 C   0  0  0  0  0  0  0  0  0  0  0  0
    4.3068  -20.6769    0.0000 C   0  0  0  0  0  0  0  0  0  0  0  0
    6.9794  -21.1685    0.0000 C   0  0  0  0  0  0  0  0  0  0  0  0
    5.1355  -22.1276    0.0000 C   0  0  0  0  0  0  0  0  0  0  0  0
    5.1527  -19.2169    0.0000 O   0  0  0  0  0  0  0  0  0  0  0  0
    6.9569  -19.7083    0.0000 C   0  0  0  0  0  0  0  0  0  0  0  0
    4.3111  -19.6997    0.0000 C   0  0  0  0  0  0  0  0  0  0  0  0
    3.4701  -21.1590    0.0000 C   0  0  0  0  0  0  0  0  0  0  0  0
    7.6493  -19.0158    0.0000 O   0  0  0  0  0  0  0  0  0  0  0  0
    3.4701  -19.2124    0.0000 C   0  0  0  0  0  0  0  0  0  0  0  0
    2.6305  -20.6769    0.0000 C   0  0  0  0  0  0  0  0  0  0  0  0
    2.9024  -21.8224    0.0000 O   0  0  0  0  0  0  0  0  0  0  0  0
    2.6305  -19.6997    0.0000 C   0  0  0  0  0  0  0  0  0  0  0  0
    1.7846  -21.1590    0.0000 O   0  0  0  0  0  0  0  0  0  0  0  0
    1.7846  -19.2124    0.0000 C   0  0  0  0  0  0  0  0  0  0  0  0
    5.9798  -18.7301    0.0000 H   0  0  0  0  0  0  0  0  0  0  0  0
    4.3025  -18.7259    0.0000 H   0  0  0  0  0  0  0  0  0  0  0  0
    4.5635  -21.6723    0.0000 C   0  0  0  0  0  0  0  0  0  0  0  0
    4.1124  -22.4258    0.0000 O   0  0  0  0  0  0  0  0  0  0  0  0
    8.5801  -19.2713    0.0000 S   0  0  0  0  0  0  0  0  0  0  0  0
    8.8338  -18.3341    0.0000 O   0  0  0  0  0  0  0  0  0  0  0  0
    8.3327  -20.2066    0.0000 O   0  0  0  0  0  0  0  0  0  0  0  0
    9.5218  -19.5170    0.0000 O   0  0  0  0  0  0  0  0  0  0  0  0
  1  2  1  0     0  0
  3  4  1  0     0  0
  3  5  1  0     0  0
  3  2  1  0     0  0
  4  6  1  0     0  0
  4  7  1  0     0  0
  4  8  1  1     0  0
  5  9  1  0     0  0
  5 10  1  0     0  0
  6 11  1  0     0  0
  6 12  1  0     0  0
 10 13  1  6     0  0
 11 14  1  0     0  0
 12 15  1  0     0  0
 12 16  1  6     0  0
 14 17  2  0     0  0
 15 18  2  0     0  0
 17 19  1  0     0  0
  7 10  1  0     0  0
  9 11  1  0     0  0
 15 17  1  0     0  0
  5 20  1  1     0  0
 11 21  1  6     0  0
  3  1  1  1     0  0
  6 22  1  6     0  0
 22 23  1  0     0  0
 13 24  1  0     0  0
 24 25  2  0     0  0
 24 26  2  0     0  0
 24 27  1  0     0  0
M  END
> <ID>
CHEBI:149449

> <NAME>
DON-3-sulfate

$$$$

Ketcher 04092018142D 1   1.00000     0.00000     0

 39 42  0     1  0            999 V2000
    3.7546  -28.4177    0.0000 S   0  0  0  0  0  0  0  0  0  0  0  0
    3.7450  -27.4389    0.0000 C   0  0  0  0  0  0  0  0  0  0  0  0
    4.5880  -26.9416    0.0000 C   0  0  0  0  0  0  0  0  0  0  0  0
    5.4400  -27.4222    0.0000 N   0  0  0  0  0  0  0  0  0  0  0  0
    6.2829  -26.9249    0.0000 C   0  0  0  0  0  0  0  0  0  0  0  0
    7.1355  -27.4058    0.0000 C   0  0  0  0  0  0  0  0  0  0  0  0
    6.2734  -25.9461    0.0000 O   0  0  0  0  0  0  0  0  0  0  0  0
    4.5785  -25.9625    0.0000 C   0  0  0  0  0  0  0  0  0  0  0  0
    5.4207  -25.4651    0.0000 O   0  0  0  0  0  0  0  0  0  0  0  0
    3.7259  -25.4816    0.0000 O   0  0  0  0  0  0  0  0  0  0  0  0
    7.9784  -26.9080    0.0000 C   0  0  0  0  0  0  0  0  0  0  0  0
    8.8312  -27.3887    0.0000 C   0  0  0  0  0  0  0  0  0  0  0  0
    9.6740  -26.8909    0.0000 C   0  0  0  0  0  0  0  0  0  0  0  0
    8.8409  -28.3678    0.0000 N   0  0  0  0  0  0  0  0  0  0  0  0
   10.5266  -27.3718    0.0000 O   0  0  0  0  0  0  0  0  0  0  0  0
    9.6641  -25.9119    0.0000 O   0  0  0  0  0  0  0  0  0  0  0  0
    6.9574  -31.1523    0.0000 C   0  0  0  0  0  0  0  0  0  0  0  0
    6.9259  -30.2195    0.0000 O   0  0  0  0  0  0  0  0  0  0  0  0
    6.2896  -30.8819    0.0000 C   0  0  0  0  0  0  0  0  0  0  0  0
    5.4425  -31.3636    0.0000 C   0  0  0  0  0  0  0  0  0  0  0  0
    6.2939  -29.8966    0.0000 C   0  0  0  0  0  0  0  0  0  0  0  0
    4.5984  -30.8732    0.0000 C   0  0  0  0  0  0  0  0  0  0  0  0
    7.2931  -31.3689    0.0000 C   0  0  0  0  0  0  0  0  0  0  0  0
    5.4341  -32.3359    0.0000 C   0  0  0  0  0  0  0  0  0  0  0  0
    5.4513  -29.4011    0.0000 O   0  0  0  0  0  0  0  0  0  0  0  0
    7.2705  -29.8966    0.0000 C   0  0  0  0  0  0  0  0  0  0  0  0
    4.6027  -29.8879    0.0000 C   0  0  0  0  0  0  0  0  0  0  0  0
    3.7549  -31.3594    0.0000 C   0  0  0  0  0  0  0  0  0  0  0  0
    7.9686  -29.1984    0.0000 O   0  0  0  0  0  0  0  0  0  0  0  0
    3.7549  -29.3966    0.0000 C   0  0  0  0  0  0  0  0  0  0  0  0
    2.9082  -30.8732    0.0000 C   0  0  0  0  0  0  0  0  0  0  0  0
    3.1825  -32.0282    0.0000 O   0  0  0  0  0  0  0  0  0  0  0  0
    2.9082  -29.8879    0.0000 C   0  0  0  0  0  0  0  0  0  0  0  0
    2.0554  -31.3594    0.0000 O   0  0  0  0  0  0  0  0  0  0  0  0
    2.0554  -29.3966    0.0000 C   0  0  0  0  0  0  0  0  0  0  0  0
    6.2853  -28.9104    0.0000 H   0  0  0  0  0  0  0  0  0  0  0  0
    4.5941  -28.9061    0.0000 H   0  0  0  0  0  0  0  0  0  0  0  0
    4.8573  -31.8769    0.0000 C   0  0  0  0  0  0  0  0  0  0  0  0
    4.4025  -32.6366    0.0000 O   0  0  0  0  0  0  0  0  0  0  0  0
  1  2  1  0     0  0
  2  3  1  0     0  0
  3  4  1  1     0  0
  3  8  1  0     0  0
  4  5  1  0     0  0
  5  6  1  0     0  0
  5  7  2  0     0  0
  8  9  1  0     0  0
  8 10  2  0     0  0
  6 11  1  0     0  0
 11 12  1  0     0  0
 12 13  1  0     0  0
 12 14  1  1     0  0
 13 15  2  0     0  0
 13 16  1  0     0  0
 17 18  1  0     0  0
 19 20  1  0     0  0
 19 21  1  0     0  0
 19 18  1  0     0  0
 20 22  1  0     0  0
 20 23  1  0     0  0
 20 24  1  1     0  0
 21 25  1  0     0  0
 21 26  1  0     0  0
 22 27  1  0     0  0
 22 28  1  0     0  0
 26 29  1  6     0  0
 27 30  1  0     0  0
 28 31  1  0     0  0
 28 32  1  6     0  0
 30 33  1  0     0  0
 31 34  2  0     0  0
 33 35  1  0     0  0
 23 26  1  0     0  0
 25 27  1  0     0  0
 31 33  1  0     0  0
 21 36  1  1     0  0
 27 37  1  6     0  0
 19 17  1  1     0  0
 30  1  1  1     0  0
 22 38  1  6     0  0
 38 39  1  0     0  0
M  END
> <ID>
CHEBI:149450

> <NAME>
DON-10-gamma-glutamylcysteine

$$$$

Ketcher 04092018302D 1   1.00000     0.00000     0

 43 46  0     1  0            999 V2000
   28.0340  -19.6961    0.0000 O   0  0  0  0  0  0  0  0  0  0  0  0
   27.1933  -20.1908    0.0000 C   0  0  0  0  0  0  0  0  0  0  0  0
   26.3032  -19.6961    0.0000 C   0  0  0  0  0  0  0  0  0  0  0  0
   25.4626  -20.1908    0.0000 C   0  0  0  0  0  0  0  0  0  0  0  0
   24.6222  -19.6961    0.0000 C   0  0  0  0  0  0  0  0  0  0  0  0
   23.7321  -20.1908    0.0000 C   0  0  0  0  0  0  0  0  0  0  0  0
   22.8915  -19.6961    0.0000 N   0  0  0  0  0  0  0  0  0  0  0  0
   22.0511  -20.1908    0.0000 C   0  0  0  0  0  0  0  0  0  0  0  0
   21.1610  -19.6961    0.0000 C   0  0  0  0  0  0  0  0  0  0  0  0
   20.3203  -20.1908    0.0000 N   0  0  0  0  0  0  0  0  0  0  0  0
   19.4799  -19.6961    0.0000 C   0  0  0  0  0  0  0  0  0  0  0  0
   18.5899  -20.1908    0.0000 C   0  0  0  0  0  0  0  0  0  0  0  0
   17.7495  -19.6961    0.0000 O   0  0  0  0  0  0  0  0  0  0  0  0
   27.1933  -21.1797    0.0000 O   0  0  0  0  0  0  0  0  0  0  0  0
   26.3032  -18.7072    0.0000 N   0  0  0  0  0  0  0  0  0  0  0  0
   23.7321  -21.1797    0.0000 O   0  0  0  0  0  0  0  0  0  0  0  0
   22.0511  -21.1797    0.0000 C   0  0  0  0  0  0  0  0  0  0  0  0
   21.1610  -18.7072    0.0000 O   0  0  0  0  0  0  0  0  0  0  0  0
   18.5899  -21.1797    0.0000 O   0  0  0  0  0  0  0  0  0  0  0  0
   22.8975  -21.6639    0.0000 S   0  0  0  0  0  0  0  0  0  0  0  0
   26.0885  -24.3883    0.0000 C   0  0  0  0  0  0  0  0  0  0  0  0
   26.0571  -23.4589    0.0000 O   0  0  0  0  0  0  0  0  0  0  0  0
   25.4232  -24.1189    0.0000 C   0  0  0  0  0  0  0  0  0  0  0  0
   24.5793  -24.5988    0.0000 C   0  0  0  0  0  0  0  0  0  0  0  0
   25.4275  -23.1372    0.0000 C   0  0  0  0  0  0  0  0  0  0  0  0
   23.7383  -24.1102    0.0000 C   0  0  0  0  0  0  0  0  0  0  0  0
   26.4230  -24.6041    0.0000 C   0  0  0  0  0  0  0  0  0  0  0  0
   24.5708  -25.5674    0.0000 C   0  0  0  0  0  0  0  0  0  0  0  0
   24.5880  -22.6435    0.0000 O   0  0  0  0  0  0  0  0  0  0  0  0
   26.4004  -23.1372    0.0000 C   0  0  0  0  0  0  0  0  0  0  0  0
   23.7426  -23.1286    0.0000 C   0  0  0  0  0  0  0  0  0  0  0  0
   22.8979  -24.5945    0.0000 C   0  0  0  0  0  0  0  0  0  0  0  0
   27.0959  -22.4417    0.0000 O   0  0  0  0  0  0  0  0  0  0  0  0
   22.8979  -22.6391    0.0000 C   0  0  0  0  0  0  0  0  0  0  0  0
   22.0544  -24.1102    0.0000 C   0  0  0  0  0  0  0  0  0  0  0  0
   22.3276  -25.2608    0.0000 O   0  0  0  0  0  0  0  0  0  0  0  0
   22.0544  -23.1286    0.0000 C   0  0  0  0  0  0  0  0  0  0  0  0
   21.2047  -24.5945    0.0000 O   0  0  0  0  0  0  0  0  0  0  0  0
   21.2047  -22.6391    0.0000 C   0  0  0  0  0  0  0  0  0  0  0  0
   25.4189  -22.1547    0.0000 H   0  0  0  0  0  0  0  0  0  0  0  0
   23.7339  -22.1504    0.0000 H   0  0  0  0  0  0  0  0  0  0  0  0
   23.9962  -25.1101    0.0000 C   0  0  0  0  0  0  0  0  0  0  0  0
   23.5431  -25.8670    0.0000 O   0  0  0  0  0  0  0  0  0  0  0  0
  1  2  1  0     0  0
  3  2  1  0     0  0
  3  4  1  0     0  0
  4  5  1  0     0  0
  5  6  1  0     0  0
  6  7  1  0     0  0
  8  7  1  0     0  0
  8  9  1  0     0  0
  9 10  1  0     0  0
 10 11  1  0     0  0
 11 12  1  0     0  0
 12 13  1  0     0  0
  2 14  2  0     0  0
  3 15  1  6     0  0
  6 16  2  0     0  0
  8 17  1  1     0  0
  9 18  2  0     0  0
 12 19  2  0     0  0
 17 20  1  0     0  0
 21 22  1  0     0  0
 23 24  1  0     0  0
 23 25  1  0     0  0
 23 22  1  0     0  0
 24 26  1  0     0  0
 24 27  1  0     0  0
 24 28  1  1     0  0
 25 29  1  0     0  0
 25 30  1  0     0  0
 26 31  1  0     0  0
 26 32  1  0     0  0
 30 33  1  6     0  0
 31 34  1  0     0  0
 32 35  1  0     0  0
 32 36  1  6     0  0
 34 37  1  0     0  0
 35 38  2  0     0  0
 37 39  1  6     0  0
 27 30  1  0     0  0
 29 31  1  0     0  0
 35 37  1  0     0  0
 25 40  1  1     0  0
 31 41  1  6     0  0
 23 21  1  1     0  0
 34 20  1  1     0  0
 26 42  1  6     0  0
 42 43  1  0     0  0
M  END
> <ID>
CHEBI:149452

> <NAME>
DON-10-glutathione

$$$$

Ketcher 04092018372D 1   1.00000     0.00000     0

 32 35  0     1  0            999 V2000
   16.1324  -26.9959    0.0000 O   0  0  0  0  0  0  0  0  0  0  0  0
   12.7558  -26.9959    0.0000 C   0  0  0  0  0  0  0  0  0  0  0  0
   11.9115  -26.5083    0.0000 C   0  0  0  0  0  0  0  0  0  0  0  0
   15.2882  -26.5085    0.0000 C   0  0  0  0  0  0  0  0  0  0  0  0
   15.2882  -25.5337    0.0000 O   0  0  0  0  0  0  0  0  0  0  0  0
   14.4441  -26.9959    0.0000 C   0  0  0  0  0  0  0  0  0  0  0  0
   14.4441  -27.9705    0.0000 N   0  0  0  0  0  0  0  0  0  0  0  0
   13.5999  -26.5085    0.0000 C   0  0  0  0  0  0  0  0  0  0  0  0
   13.5999  -25.5337    0.0000 C   0  0  0  0  0  0  0  0  0  0  0  0
   17.6332  -30.6935    0.0000 C   0  0  0  0  0  0  0  0  0  0  0  0
   17.6019  -29.7646    0.0000 O   0  0  0  0  0  0  0  0  0  0  0  0
   16.9683  -30.4242    0.0000 C   0  0  0  0  0  0  0  0  0  0  0  0
   16.1248  -30.9039    0.0000 C   0  0  0  0  0  0  0  0  0  0  0  0
   16.9726  -29.4430    0.0000 C   0  0  0  0  0  0  0  0  0  0  0  0
   15.2843  -30.4156    0.0000 C   0  0  0  0  0  0  0  0  0  0  0  0
   17.9676  -30.9092    0.0000 C   0  0  0  0  0  0  0  0  0  0  0  0
   16.1164  -31.8720    0.0000 C   0  0  0  0  0  0  0  0  0  0  0  0
   16.1336  -28.9497    0.0000 O   0  0  0  0  0  0  0  0  0  0  0  0
   17.9451  -29.4430    0.0000 C   0  0  0  0  0  0  0  0  0  0  0  0
   15.2886  -29.4345    0.0000 C   0  0  0  0  0  0  0  0  0  0  0  0
   14.4443  -30.8996    0.0000 C   0  0  0  0  0  0  0  0  0  0  0  0
   18.6401  -28.7479    0.0000 O   0  0  0  0  0  0  0  0  0  0  0  0
   14.4443  -28.9453    0.0000 C   0  0  0  0  0  0  0  0  0  0  0  0
   13.6013  -30.4156    0.0000 C   0  0  0  0  0  0  0  0  0  0  0  0
   13.8744  -31.5656    0.0000 O   0  0  0  0  0  0  0  0  0  0  0  0
   13.6013  -29.4345    0.0000 C   0  0  0  0  0  0  0  0  0  0  0  0
   12.7521  -30.8996    0.0000 O   0  0  0  0  0  0  0  0  0  0  0  0
   12.7521  -28.9453    0.0000 C   0  0  0  0  0  0  0  0  0  0  0  0
   16.9640  -28.4611    0.0000 H   0  0  0  0  0  0  0  0  0  0  0  0
   15.2800  -28.4568    0.0000 H   0  0  0  0  0  0  0  0  0  0  0  0
   15.5420  -31.4149    0.0000 C   0  0  0  0  0  0  0  0  0  0  0  0
   15.0892  -32.1715    0.0000 O   0  0  0  0  0  0  0  0  0  0  0  0
  4  1  1  0     0  0
  6  4  1  0     0  0
  8  6  1  0     0  0
  2  8  1  0     0  0
  3  2  1  0     0  0
  4  5  2  0     0  0
  6  7  1  1     0  0
  8  9  1  6     0  0
 10 11  1  0     0  0
 12 13  1  0     0  0
 12 14  1  0     0  0
 12 11  1  0     0  0
 13 15  1  0     0  0
 13 16  1  0     0  0
 13 17  1  1     0  0
 14 18  1  0     0  0
 14 19  1  0     0  0
 15 20  1  0     0  0
 15 21  1  0     0  0
 19 22  1  6     0  0
 20 23  1  0     0  0
 21 24  1  0     0  0
 21 25  1  6     0  0
 23 26  1  0     0  0
 24 27  2  0     0  0
 26 28  1  0     0  0
 16 19  1  0     0  0
 18 20  1  0     0  0
 24 26  1  0     0  0
 14 29  1  1     0  0
 20 30  1  6     0  0
 12 10  1  1     0  0
 23  7  1  1     0  0
 15 31  1  6     0  0
 31 32  1  0     0  0
M  END
> <ID>
CHEBI:149454

> <NAME>
DON-10-isoleucine

$$$$

Ketcher 04092018432D 1   1.00000     0.00000     0

 27 30  0     1  0            999 V2000
   15.5090  -20.2892    0.0000 C   0  0  0  0  0  0  0  0  0  0  0  0
   15.4780  -19.3719    0.0000 O   0  0  0  0  0  0  0  0  0  0  0  0
   14.8523  -20.0233    0.0000 C   0  0  0  0  0  0  0  0  0  0  0  0
   14.0193  -20.4969    0.0000 C   0  0  0  0  0  0  0  0  0  0  0  0
   14.8567  -19.0543    0.0000 C   0  0  0  0  0  0  0  0  0  0  0  0
   13.1892  -20.0147    0.0000 C   0  0  0  0  0  0  0  0  0  0  0  0
   15.8392  -20.5022    0.0000 C   0  0  0  0  0  0  0  0  0  0  0  0
   14.0110  -21.4531    0.0000 C   0  0  0  0  0  0  0  0  0  0  0  0
   14.0279  -18.5670    0.0000 O   0  0  0  0  0  0  0  0  0  0  0  0
   15.8170  -19.0543    0.0000 C   0  0  0  0  0  0  0  0  0  0  0  0
   13.1935  -19.0458    0.0000 C   0  0  0  0  0  0  0  0  0  0  0  0
   12.3597  -20.4928    0.0000 C   0  0  0  0  0  0  0  0  0  0  0  0
   12.3597  -18.5626    0.0000 C   0  0  0  0  0  0  0  0  0  0  0  0
   11.5271  -20.0147    0.0000 C   0  0  0  0  0  0  0  0  0  0  0  0
   11.7968  -21.1505    0.0000 O   0  0  0  0  0  0  0  0  0  0  0  0
   11.5271  -19.0458    0.0000 C   0  0  0  0  0  0  0  0  0  0  0  0
   10.6884  -20.4928    0.0000 O   0  0  0  0  0  0  0  0  0  0  0  0
   10.6884  -18.5626    0.0000 C   0  0  0  0  0  0  0  0  0  0  0  0
   14.8481  -18.0844    0.0000 H   0  0  0  0  0  0  0  0  0  0  0  0
   13.1849  -18.0802    0.0000 H   0  0  0  0  0  0  0  0  0  0  0  0
   13.1933  -21.2842    0.0000 C   0  0  0  0  0  0  0  0  0  0  0  0
   12.5158  -21.8800    0.0000 O   0  0  0  0  0  0  0  0  0  0  0  0
   16.4924  -18.3684    0.0000 O   0  0  0  0  0  0  0  0  0  0  0  0
   12.5179  -22.8362    0.0000 S   0  0  0  0  0  0  0  0  0  0  0  0
   13.4741  -22.8340    0.0000 O   0  0  0  0  0  0  0  0  0  0  0  0
   11.5618  -22.8383    0.0000 O   0  0  0  0  0  0  0  0  0  0  0  0
   12.5201  -23.7923    0.0000 O   0  0  0  0  0  0  0  0  0  0  0  0
  1  2  1  0     0  0
  3  4  1  0     0  0
  3  5  1  0     0  0
  3  2  1  0     0  0
  4  6  1  0     0  0
  4  7  1  0     0  0
  4  8  1  1     0  0
  5  9  1  0     0  0
  5 10  1  0     0  0
  6 11  1  0     0  0
  6 12  1  0     0  0
 11 13  1  0     0  0
 12 14  1  0     0  0
 12 15  1  6     0  0
 13 16  2  0     0  0
 14 17  2  0     0  0
 16 18  1  0     0  0
  7 10  1  0     0  0
  9 11  1  0     0  0
 14 16  1  0     0  0
  5 19  1  1     0  0
 11 20  1  6     0  0
  3  1  1  1     0  0
  6 21  1  6     0  0
 21 22  1  0     0  0
 10 23  1  6     0  0
 22 24  1  0     0  0
 24 25  2  0     0  0
 24 26  2  0     0  0
 24 27  1  0     0  0
M  END
> <ID>
CHEBI:149455

> <NAME>
DON-15-sulfate

$$$$

Ketcher 04092018462D 1   1.00000     0.00000     0

 32 35  0     1  0            999 V2000
   25.1751  -28.3699    0.0000 O   0  0  0  0  0  0  0  0  0  0  0  0
   21.7984  -28.3699    0.0000 C   0  0  0  0  0  0  0  0  0  0  0  0
   20.9542  -27.8823    0.0000 C   0  0  0  0  0  0  0  0  0  0  0  0
   24.3308  -27.8825    0.0000 C   0  0  0  0  0  0  0  0  0  0  0  0
   24.3308  -26.9077    0.0000 O   0  0  0  0  0  0  0  0  0  0  0  0
   23.4867  -28.3699    0.0000 C   0  0  0  0  0  0  0  0  0  0  0  0
   23.4867  -29.3446    0.0000 N   0  0  0  0  0  0  0  0  0  0  0  0
   22.6425  -27.8825    0.0000 C   0  0  0  0  0  0  0  0  0  0  0  0
   26.6759  -32.0676    0.0000 C   0  0  0  0  0  0  0  0  0  0  0  0
   26.6446  -31.1387    0.0000 O   0  0  0  0  0  0  0  0  0  0  0  0
   26.0110  -31.7983    0.0000 C   0  0  0  0  0  0  0  0  0  0  0  0
   25.1675  -32.2779    0.0000 C   0  0  0  0  0  0  0  0  0  0  0  0
   26.0153  -30.8171    0.0000 C   0  0  0  0  0  0  0  0  0  0  0  0
   24.3269  -31.7896    0.0000 C   0  0  0  0  0  0  0  0  0  0  0  0
   27.0103  -32.2832    0.0000 C   0  0  0  0  0  0  0  0  0  0  0  0
   25.1590  -33.2460    0.0000 C   0  0  0  0  0  0  0  0  0  0  0  0
   25.1762  -30.3237    0.0000 O   0  0  0  0  0  0  0  0  0  0  0  0
   26.9877  -30.8171    0.0000 C   0  0  0  0  0  0  0  0  0  0  0  0
   24.3313  -30.8085    0.0000 C   0  0  0  0  0  0  0  0  0  0  0  0
   23.4870  -32.2736    0.0000 C   0  0  0  0  0  0  0  0  0  0  0  0
   27.6828  -30.1219    0.0000 O   0  0  0  0  0  0  0  0  0  0  0  0
   23.4870  -30.3193    0.0000 C   0  0  0  0  0  0  0  0  0  0  0  0
   22.6439  -31.7896    0.0000 C   0  0  0  0  0  0  0  0  0  0  0  0
   22.9171  -32.9396    0.0000 O   0  0  0  0  0  0  0  0  0  0  0  0
   22.6439  -30.8085    0.0000 C   0  0  0  0  0  0  0  0  0  0  0  0
   21.7947  -32.2736    0.0000 O   0  0  0  0  0  0  0  0  0  0  0  0
   21.7947  -30.3193    0.0000 C   0  0  0  0  0  0  0  0  0  0  0  0
   26.0066  -29.8351    0.0000 H   0  0  0  0  0  0  0  0  0  0  0  0
   24.3226  -29.8308    0.0000 H   0  0  0  0  0  0  0  0  0  0  0  0
   24.5847  -32.7889    0.0000 C   0  0  0  0  0  0  0  0  0  0  0  0
   24.1318  -33.5455    0.0000 O   0  0  0  0  0  0  0  0  0  0  0  0
   21.7983  -29.3446    0.0000 C   0  0  0  0  0  0  0  0  0  0  0  0
  4  1  1  0     0  0
  6  4  1  0     0  0
  8  6  1  0     0  0
  2  8  1  0     0  0
  3  2  1  0     0  0
  4  5  2  0     0  0
  6  7  1  1     0  0
  9 10  1  0     0  0
 11 12  1  0     0  0
 11 13  1  0     0  0
 11 10  1  0     0  0
 12 14  1  0     0  0
 12 15  1  0     0  0
 12 16  1  1     0  0
 13 17  1  0     0  0
 13 18  1  0     0  0
 14 19  1  0     0  0
 14 20  1  0     0  0
 18 21  1  6     0  0
 19 22  1  0     0  0
 20 23  1  0     0  0
 20 24  1  6     0  0
 22 25  1  0     0  0
 23 26  2  0     0  0
 25 27  1  0     0  0
 15 18  1  0     0  0
 17 19  1  0     0  0
 23 25  1  0     0  0
 13 28  1  1     0  0
 19 29  1  6     0  0
 11  9  1  1     0  0
 22  7  1  1     0  0
 14 30  1  6     0  0
 30 31  1  0     0  0
  2 32  1  0     0  0
M  END
> <ID>
CHEBI:149456

> <NAME>
DON-10-leucine

$$$$

Ketcher 04092018512D 1   1.00000     0.00000     0

 35 39  0     1  0            999 V2000
    6.2868   -6.2375    0.0000 N   0  0  0  0  0  0  0  0  0  0  0  0
    9.4845   -8.9676    0.0000 C   0  0  0  0  0  0  0  0  0  0  0  0
    9.4530   -8.0363    0.0000 O   0  0  0  0  0  0  0  0  0  0  0  0
    8.8177   -8.6976    0.0000 C   0  0  0  0  0  0  0  0  0  0  0  0
    7.9721   -9.1786    0.0000 C   0  0  0  0  0  0  0  0  0  0  0  0
    8.8221   -7.7139    0.0000 C   0  0  0  0  0  0  0  0  0  0  0  0
    7.1293   -8.6890    0.0000 C   0  0  0  0  0  0  0  0  0  0  0  0
    9.8196   -9.1838    0.0000 C   0  0  0  0  0  0  0  0  0  0  0  0
    7.9636  -10.1492    0.0000 C   0  0  0  0  0  0  0  0  0  0  0  0
    7.9808   -7.2192    0.0000 O   0  0  0  0  0  0  0  0  0  0  0  0
    9.7970   -7.7139    0.0000 C   0  0  0  0  0  0  0  0  0  0  0  0
    7.1336   -7.7053    0.0000 C   0  0  0  0  0  0  0  0  0  0  0  0
    6.2871   -9.1743    0.0000 C   0  0  0  0  0  0  0  0  0  0  0  0
   10.4939   -7.0169    0.0000 O   0  0  0  0  0  0  0  0  0  0  0  0
    6.2871   -7.2147    0.0000 C   0  0  0  0  0  0  0  0  0  0  0  0
    5.4419   -8.6890    0.0000 C   0  0  0  0  0  0  0  0  0  0  0  0
    5.7158   -9.8420    0.0000 O   0  0  0  0  0  0  0  0  0  0  0  0
    5.4419   -7.7053    0.0000 C   0  0  0  0  0  0  0  0  0  0  0  0
    4.5904   -9.1743    0.0000 O   0  0  0  0  0  0  0  0  0  0  0  0
    4.5904   -7.2147    0.0000 C   0  0  0  0  0  0  0  0  0  0  0  0
    8.8134   -6.7293    0.0000 H   0  0  0  0  0  0  0  0  0  0  0  0
    7.1249   -6.7251    0.0000 H   0  0  0  0  0  0  0  0  0  0  0  0
    7.3877   -9.6909    0.0000 C   0  0  0  0  0  0  0  0  0  0  0  0
    6.9337  -10.4494    0.0000 O   0  0  0  0  0  0  0  0  0  0  0  0
    5.4406   -4.7716    0.0000 C   0  0  0  0  0  0  0  0  0  0  0  0
    6.2868   -5.2603    0.0000 C   0  0  0  0  0  0  0  0  0  0  0  0
    4.5942   -5.2603    0.0000 C   0  0  0  0  0  0  0  0  0  0  0  0
    3.7479   -6.7261    0.0000 C   0  0  0  0  0  0  0  0  0  0  0  0
    2.9016   -6.2375    0.0000 C   0  0  0  0  0  0  0  0  0  0  0  0
    2.9016   -5.2603    0.0000 C   0  0  0  0  0  0  0  0  0  0  0  0
    3.7479   -4.7716    0.0000 C   0  0  0  0  0  0  0  0  0  0  0  0
    4.5942   -6.2375    0.0000 C   0  0  0  0  0  0  0  0  0  0  0  0
    7.1332   -4.7716    0.0000 C   0  0  0  0  0  0  0  0  0  0  0  0
    7.9796   -5.2603    0.0000 O   0  0  0  0  0  0  0  0  0  0  0  0
    7.1332   -3.7943    0.0000 O   0  0  0  0  0  0  0  0  0  0  0  0
  2  3  1  0     0  0
  4  5  1  0     0  0
  4  6  1  0     0  0
  4  3  1  0     0  0
  5  7  1  0     0  0
  5  8  1  0     0  0
  5  9  1  1     0  0
  6 10  1  0     0  0
  6 11  1  0     0  0
  7 12  1  0     0  0
  7 13  1  0     0  0
 11 14  1  6     0  0
 12 15  1  0     0  0
 13 16  1  0     0  0
 13 17  1  6     0  0
 15 18  1  0     0  0
 16 19  2  0     0  0
 18 20  1  0     0  0
  8 11  1  0     0  0
 10 12  1  0     0  0
 16 18  1  0     0  0
  6 21  1  1     0  0
 12 22  1  6     0  0
  4  2  1  1     0  0
 15  1  1  1     0  0
  7 23  1  6     0  0
 23 24  1  0     0  0
 25 26  1  0     0  0
 26 33  1  0     0  0
 27 25  1  0     0  0
 29 28  1  0     0  0
 30 29  2  0     0  0
 31 30  1  0     0  0
 27 31  2  0     0  0
 27 32  1  0     0  0
 28 32  2  0     0  0
 26  1  1  1     0  0
 34 33  1  0     0  0
 35 33  2  0     0  0
M  END
> <ID>
CHEBI:149457

> <NAME>
DON-10-phenylalanine

$$$$

Ketcher 04092018562D 1   1.00000     0.00000     0

 36 40  0     1  0            999 V2000
   14.0306   -6.2410    0.0000 N   0  0  0  0  0  0  0  0  0  0  0  0
   17.2300   -8.9727    0.0000 C   0  0  0  0  0  0  0  0  0  0  0  0
   17.1985   -8.0409    0.0000 O   0  0  0  0  0  0  0  0  0  0  0  0
   16.5629   -8.7026    0.0000 C   0  0  0  0  0  0  0  0  0  0  0  0
   15.7168   -9.1838    0.0000 C   0  0  0  0  0  0  0  0  0  0  0  0
   16.5673   -7.7183    0.0000 C   0  0  0  0  0  0  0  0  0  0  0  0
   14.8735   -8.6939    0.0000 C   0  0  0  0  0  0  0  0  0  0  0  0
   17.5654   -9.1890    0.0000 C   0  0  0  0  0  0  0  0  0  0  0  0
   15.7082  -10.1550    0.0000 C   0  0  0  0  0  0  0  0  0  0  0  0
   15.7254   -7.2233    0.0000 O   0  0  0  0  0  0  0  0  0  0  0  0
   17.5427   -7.7183    0.0000 C   0  0  0  0  0  0  0  0  0  0  0  0
   14.8779   -7.7097    0.0000 C   0  0  0  0  0  0  0  0  0  0  0  0
   14.0309   -9.1795    0.0000 C   0  0  0  0  0  0  0  0  0  0  0  0
   18.2401   -7.0208    0.0000 O   0  0  0  0  0  0  0  0  0  0  0  0
   14.0309   -7.2188    0.0000 C   0  0  0  0  0  0  0  0  0  0  0  0
   13.1851   -8.6939    0.0000 C   0  0  0  0  0  0  0  0  0  0  0  0
   13.4592   -9.8476    0.0000 O   0  0  0  0  0  0  0  0  0  0  0  0
   13.1851   -7.7097    0.0000 C   0  0  0  0  0  0  0  0  0  0  0  0
   12.3332   -9.1795    0.0000 O   0  0  0  0  0  0  0  0  0  0  0  0
   12.3332   -7.2188    0.0000 C   0  0  0  0  0  0  0  0  0  0  0  0
   16.5586   -6.7331    0.0000 H   0  0  0  0  0  0  0  0  0  0  0  0
   14.8691   -6.7289    0.0000 H   0  0  0  0  0  0  0  0  0  0  0  0
   15.1321   -9.6964    0.0000 C   0  0  0  0  0  0  0  0  0  0  0  0
   14.6778  -10.4553    0.0000 O   0  0  0  0  0  0  0  0  0  0  0  0
   14.8775   -3.7965    0.0000 O   0  0  0  0  0  0  0  0  0  0  0  0
   14.8775   -4.7743    0.0000 C   0  0  0  0  0  0  0  0  0  0  0  0
   15.7243   -5.2632    0.0000 O   0  0  0  0  0  0  0  0  0  0  0  0
   14.0306   -5.2632    0.0000 C   0  0  0  0  0  0  0  0  0  0  0  0
   13.1839   -4.7743    0.0000 C   0  0  0  0  0  0  0  0  0  0  0  0
   12.3370   -5.2632    0.0000 C   0  0  0  0  0  0  0  0  0  0  0  0
   12.3370   -6.2410    0.0000 C   0  0  0  0  0  0  0  0  0  0  0  0
   11.4902   -4.7743    0.0000 C   0  0  0  0  0  0  0  0  0  0  0  0
   10.6435   -5.2632    0.0000 C   0  0  0  0  0  0  0  0  0  0  0  0
   11.4902   -6.7299    0.0000 C   0  0  0  0  0  0  0  0  0  0  0  0
   10.6435   -6.2410    0.0000 C   0  0  0  0  0  0  0  0  0  0  0  0
    9.7966   -6.7299    0.0000 O   0  0  0  0  0  0  0  0  0  0  0  0
  2  3  1  0     0  0
  4  5  1  0     0  0
  4  6  1  0     0  0
  4  3  1  0     0  0
  5  7  1  0     0  0
  5  8  1  0     0  0
  5  9  1  1     0  0
  6 10  1  0     0  0
  6 11  1  0     0  0
  7 12  1  0     0  0
  7 13  1  0     0  0
 11 14  1  6     0  0
 12 15  1  0     0  0
 13 16  1  0     0  0
 13 17  1  6     0  0
 15 18  1  0     0  0
 16 19  2  0     0  0
 18 20  1  0     0  0
  8 11  1  0     0  0
 10 12  1  0     0  0
 16 18  1  0     0  0
  6 21  1  1     0  0
 12 22  1  6     0  0
  4  2  1  1     0  0
 15  1  1  1     0  0
  7 23  1  6     0  0
 23 24  1  0     0  0
 26 25  2  0     0  0
 27 26  1  0     0  0
 28 26  1  0     0  0
 28  1  1  1     0  0
 29 28  1  0     0  0
 30 29  1  0     0  0
 31 30  1  0     0  0
 32 30  2  0     0  0
 33 32  1  0     0  0
 34 31  2  0     0  0
 35 33  2  0     0  0
 34 35  1  0     0  0
 36 35  1  0     0  0
M  END
> <ID>
CHEBI:149459

> <NAME>
DON-10-tyrosine

$$$$

Ketcher 04092019012D 1   1.00000     0.00000     0

 47 52  0     1  0            999 V2000
   26.1020   -6.6231    0.0000 C   0  0  0  0  0  0  0  0  0  0  0  0
   26.0704   -5.6869    0.0000 O   0  0  0  0  0  0  0  0  0  0  0  0
   25.4319   -6.3516    0.0000 C   0  0  0  0  0  0  0  0  0  0  0  0
   24.5819   -6.8350    0.0000 C   0  0  0  0  0  0  0  0  0  0  0  0
   25.4363   -5.3628    0.0000 C   0  0  0  0  0  0  0  0  0  0  0  0
   23.7348   -6.3429    0.0000 C   0  0  0  0  0  0  0  0  0  0  0  0
   26.4390   -6.8403    0.0000 C   0  0  0  0  0  0  0  0  0  0  0  0
   24.5733   -7.8107    0.0000 C   0  0  0  0  0  0  0  0  0  0  0  0
   24.5906   -4.8656    0.0000 O   0  0  0  0  0  0  0  0  0  0  0  0
   26.4162   -5.3628    0.0000 C   0  0  0  0  0  0  0  0  0  0  0  0
   23.7392   -5.3542    0.0000 C   0  0  0  0  0  0  0  0  0  0  0  0
   22.8884   -6.8307    0.0000 C   0  0  0  0  0  0  0  0  0  0  0  0
   27.1167   -4.6623    0.0000 O   0  0  0  0  0  0  0  0  0  0  0  0
   22.8884   -4.8612    0.0000 C   0  0  0  0  0  0  0  0  0  0  0  0
   22.0387   -6.3429    0.0000 C   0  0  0  0  0  0  0  0  0  0  0  0
   22.3140   -7.5019    0.0000 O   0  0  0  0  0  0  0  0  0  0  0  0
   22.0387   -5.3542    0.0000 C   0  0  0  0  0  0  0  0  0  0  0  0
   21.1828   -6.8307    0.0000 O   0  0  0  0  0  0  0  0  0  0  0  0
   21.1828   -4.8612    0.0000 C   0  0  0  0  0  0  0  0  0  0  0  0
   25.4276   -4.3732    0.0000 H   0  0  0  0  0  0  0  0  0  0  0  0
   23.7304   -4.3689    0.0000 H   0  0  0  0  0  0  0  0  0  0  0  0
   23.9946   -7.3500    0.0000 C   0  0  0  0  0  0  0  0  0  0  0  0
   23.5381   -8.1125    0.0000 O   0  0  0  0  0  0  0  0  0  0  0  0
   23.5109   -9.8196    0.0000 C   0  0  0  0  0  0  0  0  0  0  0  0
   23.9897  -10.6740    0.0000 N   0  0  0  0  0  0  0  0  0  0  0  0
   24.9676  -10.6897    0.0000 C   0  0  0  0  0  0  0  0  0  0  0  0
   25.4736   -9.8510    0.0000 O   0  0  0  0  0  0  0  0  0  0  0  0
   25.4463  -11.5512    0.0000 C   0  0  0  0  0  0  0  0  0  0  0  0
   26.9373  -10.7212    0.0000 C   0  0  0  0  0  0  0  0  0  0  0  0
   27.9221  -10.7370    0.0000 C   0  0  0  0  0  0  0  0  0  0  0  0
   28.4008  -11.5984    0.0000 C   0  0  0  0  0  0  0  0  0  0  0  0
   27.8948  -12.4439    0.0000 C   0  0  0  0  0  0  0  0  0  0  0  0
   26.9099  -12.4281    0.0000 C   0  0  0  0  0  0  0  0  0  0  0  0
   26.4312  -11.5669    0.0000 C   0  0  0  0  0  0  0  0  0  0  0  0
   24.0170   -8.9738    0.0000 C   0  0  0  0  0  0  0  0  0  0  0  0
   24.9948   -8.9895    0.0000 O   0  0  0  0  0  0  0  0  0  0  0  0
   22.2281   -9.2764    0.0000 N   0  0  0  0  0  0  0  0  0  0  0  0
   21.8495  -10.8254    0.0000 S   0  0  0  0  0  0  0  0  0  0  0  0
   20.0622  -10.0688    0.0000 C   0  0  0  0  0  0  0  0  0  0  0  0
   21.0131  -10.2999    0.0000 C   0  0  0  0  0  0  0  0  0  0  0  0
   20.4961  -11.1400    0.0000 C   0  0  0  0  0  0  0  0  0  0  0  0
   21.2529   -9.3527    0.0000 C   0  0  0  0  0  0  0  0  0  0  0  0
   19.6493   -8.7694    0.0000 O   0  0  0  0  0  0  0  0  0  0  0  0
   20.6204   -8.5957    0.0000 C   0  0  0  0  0  0  0  0  0  0  0  0
   20.9554   -7.6736    0.0000 O   0  0  0  0  0  0  0  0  0  0  0  0
   22.5979  -10.1894    0.0000 C   0  0  0  0  0  0  0  0  0  0  0  0
   23.2304  -10.9463    0.0000 H   0  0  0  0  0  0  0  0  0  0  0  0
  1  2  1  0     0  0
  3  4  1  0     0  0
  3  5  1  0     0  0
  3  2  1  0     0  0
  4  6  1  0     0  0
  4  7  1  0     0  0
  4  8  1  1     0  0
  5  9  1  0     0  0
  5 10  1  0     0  0
  6 11  1  0     0  0
  6 12  1  0     0  0
 10 13  1  6     0  0
 11 14  1  0     0  0
 12 15  1  0     0  0
 12 16  1  6     0  0
 14 17  2  0     0  0
 15 18  2  0     0  0
 17 19  1  0     0  0
  7 10  1  0     0  0
  9 11  1  0     0  0
 15 17  1  0     0  0
  5 20  1  1     0  0
 11 21  1  6     0  0
  3  1  1  1     0  0
  6 22  1  6     0  0
 22 23  1  0     0  0
 24 35  1  0     0  0
 24 25  1  1     0  0
 25 26  1  0     0  0
 26 28  1  0     0  0
 26 27  2  0     0  0
 28 34  1  0     0  0
 29 30  1  0     0  0
 29 34  2  0     0  0
 30 31  2  0     0  0
 31 32  1  0     0  0
 32 33  2  0     0  0
 33 34  1  0     0  0
 35 36  2  0     0  0
 35 23  1  0     0  0
 46 24  1  0     0  0
 37 42  1  0     0  0
 46 37  1  0     0  0
 38 46  1  0     0  0
 38 40  1  0     0  0
 42 40  1  0     0  0
 40 39  1  0     0  0
 40 41  1  0     0  0
 42 44  1  6     0  0
 44 43  1  0     0  0
 44 45  2  0     0  0
 46 47  1  6     0  0
M  END
> <ID>
CHEBI:149460

> <NAME>
DON-15-penicillin G

$$$$
71312510
  CDK     0409211651

 34 38  0  0  0  0  0  0  0  0999 V2000
    8.0758    1.2102    0.0000 O   0  0  0  0  0  0  0  0  0  0  0  0
    4.6946    0.9605    0.0000 O   0  0  0  0  0  0  0  0  0  0  0  0
    5.6652   -1.5421    0.0000 O   0  0  0  0  0  0  0  0  0  0  0  0
    6.4203    3.1544    0.0000 O   0  0  0  0  0  0  0  0  0  0  0  0
    6.8716    2.2774    0.0000 O   0  0  0  0  0  0  0  0  0  0  0  0
    5.1537    4.2728    0.0000 O   0  0  0  0  0  0  0  0  0  0  0  0
    4.2363   -1.5421    0.0000 O   0  0  0  0  0  0  0  0  0  0  0  0
    5.6652   -3.1921    0.0000 O   0  0  0  0  0  0  0  0  0  0  0  0
    4.2363   -4.0171    0.0000 O   0  0  0  0  0  0  0  0  0  0  0  0
    2.8074   -3.1921    0.0000 O   0  0  0  0  0  0  0  0  0  0  0  0
    2.0929   -1.9546    0.0000 O   0  0  0  0  0  0  0  0  0  0  0  0
    6.2485    1.1034    0.0000 C   0  0  1  0  0  0  0  0  0  0  0  0
    7.3614    0.7977    0.0000 C   0  0  2  0  0  0  0  0  0  0  0  0
    5.4603    2.0540    0.0000 C   0  0  2  0  0  0  0  0  0  0  0  0
    6.2485    0.2784    0.0000 C   0  0  1  0  0  0  0  0  0  0  0  0
    5.0819   -0.1338    0.0000 C   0  0  0  0  0  0  0  0  0  0  0  0
    5.6652   -0.7172    0.0000 C   0  0  1  0  0  0  0  0  0  0  0  0
    8.0758    0.3852    0.0000 C   0  0  0  0  0  0  0  0  0  0  0  0
    4.6803    1.7853    0.0000 C   0  0  1  0  0  0  0  0  0  0  0  0
    6.2485    1.9284    0.0000 C   0  0  0  0  0  0  0  0  0  0  0  0
    5.6373    2.8949    0.0000 C   0  0  1  0  0  0  0  0  0  0  0  0
    6.1015    2.5731    0.0000 C   0  0  0  0  0  0  0  0  0  0  0  0
    4.0231    2.3391    0.0000 C   0  0  0  0  0  0  0  0  0  0  0  0
    4.9931    3.4636    0.0000 C   0  0  0  0  0  0  0  0  0  0  0  0
    4.1806    3.1839    0.0000 C   0  0  0  0  0  0  0  0  0  0  0  0
    4.9507   -1.9546    0.0000 C   0  0  2  0  0  0  0  0  0  0  0  0
    4.9507   -2.7796    0.0000 C   0  0  1  0  0  0  0  0  0  0  0  0
    3.5558    3.7227    0.0000 C   0  0  0  0  0  0  0  0  0  0  0  0
    4.2363   -3.1921    0.0000 C   0  0  2  0  0  0  0  0  0  0  0  0
    3.5218   -1.9546    0.0000 C   0  0  1  0  0  0  0  0  0  0  0  0
    3.5218   -2.7796    0.0000 C   0  0  1  0  0  0  0  0  0  0  0  0
    2.8074   -1.5421    0.0000 C   0  0  0  0  0  0  0  0  0  0  0  0
    6.2485   -0.4228    0.0000 H   0  0  0  0  0  0  0  0  0  0  0  0
    4.0173    1.5571    0.0000 H   0  0  0  0  0  0  0  0  0  0  0  0
 13  1  1  1  0  0  0 
  1 18  1  0  0  0  0 
  2 15  1  0  0  0  0 
  2 19  1  0  0  0  0 
 17  3  1  6  0  0  0 
 26  3  1  1  0  0  0 
 21  4  1  1  0  0  0 
  5 22  1  0  0  0  0 
  6 24  2  0  0  0  0 
  7 26  1  0  0  0  0 
  7 30  1  0  0  0  0 
 27  8  1  6  0  0  0 
 29  9  1  1  0  0  0 
 31 10  1  6  0  0  0 
 11 32  1  0  0  0  0 
 12 13  1  0  0  0  0 
 12 14  1  0  0  0  0 
 12 16  1  0  0  0  0 
 12 20  1  1  0  0  0 
 13 15  1  0  0  0  0 
 13 18  1  0  0  0  0 
 14 19  1  0  0  0  0 
 14 21  1  0  0  0  0 
 14 22  1  1  0  0  0 
 15 17  1  0  0  0  0 
 15 33  1  6  0  0  0 
 16 17  1  0  0  0  0 
 19 23  1  0  0  0  0 
 19 34  1  1  0  0  0 
 21 24  1  0  0  0  0 
 23 25  2  0  0  0  0 
 24 25  1  0  0  0  0 
 25 28  1  0  0  0  0 
 26 27  1  0  0  0  0 
 27 29  1  0  0  0  0 
 29 31  1  0  0  0  0 
 30 31  1  0  0  0  0 
 30 32  1  1  0  0  0 
M  END
> <ID>
CHEBI:168268

> <NAME>
Deoxynivalenol 3-glucoside

$$$$
11741578
  CDK     0409211651

 28 31  0  0  0  0  0  0  0  0999 V2000
    7.5733    0.6071    0.0000 O   0  0  0  0  0  0  0  0  0  0  0  0
    4.3722    1.7233    0.0000 O   0  0  0  0  0  0  0  0  0  0  0  0
    4.2325    2.8936    0.0000 O   0  0  0  0  0  0  0  0  0  0  0  0
    5.9573    3.8894    0.0000 O   0  0  0  0  0  0  0  0  0  0  0  0
    5.4551   -0.8152    0.0000 O   0  0  0  0  0  0  0  0  0  0  0  0
    3.9582   -1.5948    0.0000 O   0  0  0  0  0  0  0  0  0  0  0  0
    2.5324   -1.5006    0.0000 O   0  0  0  0  0  0  0  0  0  0  0  0
    1.6836   -3.5114    0.0000 O   0  0  0  0  0  0  0  0  0  0  0  0
    5.8360    1.1831    0.0000 C   0  0  0  0  0  0  0  0  0  0  0  0
    6.9900    1.1904    0.0000 C   0  0  0  0  0  0  0  0  0  0  0  0
    4.8287    0.4690    0.0000 C   0  0  0  0  0  0  0  0  0  0  0  0
    6.0495    1.9800    0.0000 C   0  0  0  0  0  0  0  0  0  0  0  0
    5.0293    2.6801    0.0000 C   0  0  0  0  0  0  0  0  0  0  0  0
    7.7869    1.4039    0.0000 C   0  0  0  0  0  0  0  0  0  0  0  0
    5.7437    3.0926    0.0000 C   0  0  0  0  0  0  0  0  0  0  0  0
    4.1447    0.9303    0.0000 C   0  0  0  0  0  0  0  0  0  0  0  0
    6.0496    0.3863    0.0000 C   0  0  0  0  0  0  0  0  0  0  0  0
    4.7819   -0.3890    0.0000 C   0  0  0  0  0  0  0  0  0  0  0  0
    5.5126    0.0078    0.0000 C   0  0  0  0  0  0  0  0  0  0  0  0
    4.0126   -0.7717    0.0000 C   0  0  0  0  0  0  0  0  0  0  0  0
    3.3667    0.5656    0.0000 C   0  0  0  0  0  0  0  0  0  0  0  0
    3.3001   -0.2911    0.0000 C   0  0  0  0  0  0  0  0  0  0  0  0
    2.5574   -0.6499    0.0000 C   0  0  0  0  0  0  0  0  0  0  0  0
    3.2181   -1.9593    0.0000 C   0  0  0  0  0  0  0  0  0  0  0  0
    3.1638   -2.7824    0.0000 C   0  0  0  0  0  0  0  0  0  0  0  0
    2.4237   -3.1470    0.0000 C   0  0  0  0  0  0  0  0  0  0  0  0
    2.7882   -3.8870    0.0000 C   0  0  0  0  0  0  0  0  0  0  0  0
    2.0592   -2.4069    0.0000 C   0  0  0  0  0  0  0  0  0  0  0  0
  1 10  1  0  0  0  0 
  1 14  1  0  0  0  0 
  2 12  1  0  0  0  0 
  2 16  1  0  0  0  0 
  3 13  1  0  0  0  0 
  4 15  1  0  0  0  0 
  5 19  1  0  0  0  0 
  6 20  1  0  0  0  0 
  6 24  1  0  0  0  0 
  7 24  2  0  0  0  0 
  8 26  1  0  0  0  0 
  9 10  1  0  0  0  0 
  9 11  1  0  0  0  0 
  9 13  1  0  0  0  0 
  9 17  1  0  0  0  0 
 10 12  1  0  0  0  0 
 10 14  1  0  0  0  0 
 11 16  1  0  0  0  0 
 11 18  1  0  0  0  0 
 11 19  1  0  0  0  0 
 12 15  1  0  0  0  0 
 13 15  1  0  0  0  0 
 16 21  1  0  0  0  0 
 18 20  1  0  0  0  0 
 20 22  1  0  0  0  0 
 21 22  2  0  0  0  0 
 22 23  1  0  0  0  0 
 24 25  1  0  0  0  0 
 25 26  1  0  0  0  0 
 26 27  1  0  0  0  0 
 26 28  1  0  0  0  0 
M  END
> <ID>
CHEBI:168408

> <NAME>
3'-Hydroxy-T2-triol

$$$$
13797598
  CDK     0409211651

 34 37  0  0  0  0  0  0  0  0999 V2000
    1.2191    0.4553    0.0000 O   0  0  0  0  0  0  0  0  0  0  0  0
    4.4202    1.5714    0.0000 O   0  0  0  0  0  0  0  0  0  0  0  0
    4.5600    2.7417    0.0000 O   0  0  0  0  0  0  0  0  0  0  0  0
    2.8352    3.7375    0.0000 O   0  0  0  0  0  0  0  0  0  0  0  0
    3.3374   -0.9671    0.0000 O   0  0  0  0  0  0  0  0  0  0  0  0
    4.8343   -1.7466    0.0000 O   0  0  0  0  0  0  0  0  0  0  0  0
    4.1901    4.1219    0.0000 O   0  0  0  0  0  0  0  0  0  0  0  0
    1.9120   -1.0667    0.0000 O   0  0  0  0  0  0  0  0  0  0  0  0
    6.2599   -1.6524    0.0000 O   0  0  0  0  0  0  0  0  0  0  0  0
    2.9564    1.0313    0.0000 C   0  0  1  0  0  0  0  0  0  0  0  0
    1.8024    1.0386    0.0000 C   0  0  2  0  0  0  0  0  0  0  0  0
    3.9637    0.3172    0.0000 C   0  0  2  0  0  0  0  0  0  0  0  0
    2.7429    1.8282    0.0000 C   0  0  1  0  0  0  0  0  0  0  0  0
    3.7631    2.5282    0.0000 C   0  0  1  0  0  0  0  0  0  0  0  0
    1.0056    1.2521    0.0000 C   0  0  0  0  0  0  0  0  0  0  0  0
    3.0487    2.9407    0.0000 C   0  0  1  0  0  0  0  0  0  0  0  0
    4.6477    0.7785    0.0000 C   0  0  1  0  0  0  0  0  0  0  0  0
    2.7429    0.2344    0.0000 C   0  0  0  0  0  0  0  0  0  0  0  0
    4.0105   -0.5408    0.0000 C   0  0  0  0  0  0  0  0  0  0  0  0
    3.2798   -0.1441    0.0000 C   0  0  0  0  0  0  0  0  0  0  0  0
    4.7799   -0.9234    0.0000 C   0  0  1  0  0  0  0  0  0  0  0  0
    5.4257    0.4137    0.0000 C   0  0  0  0  0  0  0  0  0  0  0  0
    5.4922   -0.4430    0.0000 C   0  0  0  0  0  0  0  0  0  0  0  0
    4.7735    3.5386    0.0000 C   0  0  0  0  0  0  0  0  0  0  0  0
    6.2351   -0.8018    0.0000 C   0  0  0  0  0  0  0  0  0  0  0  0
    2.6534   -1.4284    0.0000 C   0  0  0  0  0  0  0  0  0  0  0  0
    5.5703    3.7521    0.0000 C   0  0  0  0  0  0  0  0  0  0  0  0
    5.5743   -2.1111    0.0000 C   0  0  0  0  0  0  0  0  0  0  0  0
    2.7110   -2.2513    0.0000 C   0  0  0  0  0  0  0  0  0  0  0  0
    5.6287   -2.9342    0.0000 C   0  0  0  0  0  0  0  0  0  0  0  0
    6.3687   -3.2987    0.0000 C   0  0  0  0  0  0  0  0  0  0  0  0
    6.4231   -4.1219    0.0000 C   0  0  0  0  0  0  0  0  0  0  0  0
    2.5615    2.5054    0.0000 H   0  0  0  0  0  0  0  0  0  0  0  0
    5.2290    1.1706    0.0000 H   0  0  0  0  0  0  0  0  0  0  0  0
 11  1  1  1  0  0  0 
  1 15  1  0  0  0  0 
  2 13  1  0  0  0  0 
  2 17  1  0  0  0  0 
 14  3  1  1  0  0  0 
  3 24  1  0  0  0  0 
 16  4  1  6  0  0  0 
  5 20  1  0  0  0  0 
  5 26  1  0  0  0  0 
 21  6  1  1  0  0  0 
  6 28  1  0  0  0  0 
  7 24  2  0  0  0  0 
  8 26  2  0  0  0  0 
  9 28  2  0  0  0  0 
 10 11  1  0  0  0  0 
 10 12  1  0  0  0  0 
 10 14  1  0  0  0  0 
 10 18  1  1  0  0  0 
 11 13  1  0  0  0  0 
 11 15  1  0  0  0  0 
 12 17  1  0  0  0  0 
 12 19  1  0  0  0  0 
 12 20  1  1  0  0  0 
 13 16  1  0  0  0  0 
 13 33  1  6  0  0  0 
 14 16  1  0  0  0  0 
 17 22  1  0  0  0  0 
 17 34  1  1  0  0  0 
 19 21  1  0  0  0  0 
 21 23  1  0  0  0  0 
 22 23  2  0  0  0  0 
 23 25  1  0  0  0  0 
 24 27  1  0  0  0  0 
 26 29  1  0  0  0  0 
 28 30  1  0  0  0  0 
 30 31  1  0  0  0  0 
 31 32  1  0  0  0  0 
M  END
> <ID>
CHEBI:168626

> <NAME>
8-Butanoylneosolaniol

$$$$
5284386
  CDK     0409211651

 28 32  0  0  0  0  0  0  0  0999 V2000
    2.9063   -2.1930    0.0000 O   0  0  0  0  0  0  0  0  0  0  0  0
    1.6499   -1.2759    0.0000 O   0  0  0  0  0  0  0  0  0  0  0  0
    4.3881    0.1550    0.0000 O   0  0  0  0  0  0  0  0  0  0  0  0
    5.8302   -2.3541    0.0000 O   0  0  0  0  0  0  0  0  0  0  0  0
    6.5761   -1.1192    0.0000 O   0  0  0  0  0  0  0  0  0  0  0  0
    4.3959    1.8896    0.0000 O   0  0  0  0  0  0  0  0  0  0  0  0
    7.3647    0.1756    0.0000 O   0  0  0  0  0  0  0  0  0  0  0  0
    5.8836    2.7639    0.0000 O   0  0  0  0  0  0  0  0  0  0  0  0
    2.9063   -0.8653    0.0000 C   0  0  0  0  0  0  0  0  0  0  0  0
    3.6868   -1.1167    0.0000 C   0  0  0  0  0  0  0  0  0  0  0  0
    2.4248   -1.5292    0.0000 C   0  0  0  0  0  0  0  0  0  0  0  0
    3.6868   -1.9416    0.0000 C   0  0  0  0  0  0  0  0  0  0  0  0
    4.4013   -0.7042    0.0000 C   0  0  0  0  0  0  0  0  0  0  0  0
    2.4248   -0.2074    0.0000 C   0  0  0  0  0  0  0  0  0  0  0  0
    5.1158   -1.1167    0.0000 C   0  0  0  0  0  0  0  0  0  0  0  0
    4.4013   -2.3541    0.0000 C   0  0  0  0  0  0  0  0  0  0  0  0
    5.1158   -1.9416    0.0000 C   0  0  0  0  0  0  0  0  0  0  0  0
    1.6499   -0.4607    0.0000 C   0  0  0  0  0  0  0  0  0  0  0  0
    5.8665   -0.6985    0.0000 C   0  0  0  0  0  0  0  0  0  0  0  0
    5.8731    0.1608    0.0000 C   0  0  0  0  0  0  0  0  0  0  0  0
    5.1289    0.5904    0.0000 C   0  0  0  0  0  0  0  0  0  0  0  0
    5.1151    1.4853    0.0000 C   0  0  0  0  0  0  0  0  0  0  0  0
    6.6551    0.5963    0.0000 C   0  0  0  0  0  0  0  0  0  0  0  0
    5.8868    1.9389    0.0000 C   0  0  0  0  0  0  0  0  0  0  0  0
    6.6620    1.4914    0.0000 C   0  0  0  0  0  0  0  0  0  0  0  0
    5.8302   -3.1791    0.0000 C   0  0  0  0  0  0  0  0  0  0  0  0
    4.3864    2.7145    0.0000 C   0  0  0  0  0  0  0  0  0  0  0  0
    6.5965    3.1791    0.0000 C   0  0  0  0  0  0  0  0  0  0  0  0
  1 11  1  0  0  0  0 
  1 12  1  0  0  0  0 
  2 11  1  0  0  0  0 
  2 18  1  0  0  0  0 
  3 13  1  0  0  0  0 
  3 21  1  0  0  0  0 
  4 17  1  0  0  0  0 
  4 26  1  0  0  0  0 
  5 19  2  0  0  0  0 
  6 22  1  0  0  0  0 
  6 27  1  0  0  0  0 
  7 23  1  0  0  0  0 
  8 24  1  0  0  0  0 
  8 28  1  0  0  0  0 
  9 10  1  0  0  0  0 
  9 11  1  0  0  0  0 
  9 14  1  0  0  0  0 
 10 12  1  0  0  0  0 
 10 13  2  0  0  0  0 
 12 16  2  0  0  0  0 
 13 15  1  0  0  0  0 
 14 18  2  0  0  0  0 
 15 17  2  0  0  0  0 
 15 19  1  0  0  0  0 
 16 17  1  0  0  0  0 
 19 20  1  0  0  0  0 
 20 21  2  0  0  0  0 
 20 23  1  0  0  0  0 
 21 22  1  0  0  0  0 
 22 24  2  0  0  0  0 
 23 25  2  0  0  0  0 
 24 25  1  0  0  0  0 
M  END
> <ID>
CHEBI:168632

> <NAME>
5,6-Dimethoxysterigmatocystin

$$$$
75310498
  CDK     0409211651

 24 27  0  0  0  0  0  0  0  0999 V2000
    6.4244   -0.0120    0.0000 O   0  0  0  0  0  0  0  0  0  0  0  0
    3.3507    1.0597    0.0000 O   0  0  0  0  0  0  0  0  0  0  0  0
    3.2166    2.1834    0.0000 O   0  0  0  0  0  0  0  0  0  0  0  0
    4.8727    3.1395    0.0000 O   0  0  0  0  0  0  0  0  0  0  0  0
    4.3905   -1.3778    0.0000 O   0  0  0  0  0  0  0  0  0  0  0  0
    2.9532   -2.1262    0.0000 O   0  0  0  0  0  0  0  0  0  0  0  0
    1.5842   -2.0359    0.0000 O   0  0  0  0  0  0  0  0  0  0  0  0
    4.7562    0.5411    0.0000 C   0  0  0  0  0  0  0  0  0  0  0  0
    5.8643    0.5481    0.0000 C   0  0  0  0  0  0  0  0  0  0  0  0
    3.7890   -0.1446    0.0000 C   0  0  0  0  0  0  0  0  0  0  0  0
    4.9612    1.3062    0.0000 C   0  0  0  0  0  0  0  0  0  0  0  0
    3.9817    1.9784    0.0000 C   0  0  0  0  0  0  0  0  0  0  0  0
    6.6294    0.7531    0.0000 C   0  0  0  0  0  0  0  0  0  0  0  0
    4.6676    2.3744    0.0000 C   0  0  0  0  0  0  0  0  0  0  0  0
    3.1323    0.2983    0.0000 C   0  0  0  0  0  0  0  0  0  0  0  0
    4.9613   -0.2241    0.0000 C   0  0  0  0  0  0  0  0  0  0  0  0
    3.7442   -0.9685    0.0000 C   0  0  0  0  0  0  0  0  0  0  0  0
    4.4457   -0.5876    0.0000 C   0  0  0  0  0  0  0  0  0  0  0  0
    3.0054   -1.3359    0.0000 C   0  0  0  0  0  0  0  0  0  0  0  0
    2.3853   -0.0520    0.0000 C   0  0  0  0  0  0  0  0  0  0  0  0
    2.3213   -0.8745    0.0000 C   0  0  0  0  0  0  0  0  0  0  0  0
    1.6081   -1.2190    0.0000 C   0  0  0  0  0  0  0  0  0  0  0  0
    2.2426   -2.4763    0.0000 C   0  0  0  0  0  0  0  0  0  0  0  0
    2.1904   -3.2666    0.0000 C   0  0  0  0  0  0  0  0  0  0  0  0
  1  9  1  0  0  0  0 
  1 13  1  0  0  0  0 
  2 11  1  0  0  0  0 
  2 15  1  0  0  0  0 
  3 12  1  0  0  0  0 
  4 14  1  0  0  0  0 
  5 18  1  0  0  0  0 
  6 19  1  0  0  0  0 
  6 23  1  0  0  0  0 
  7 23  2  0  0  0  0 
  8  9  1  0  0  0  0 
  8 10  1  0  0  0  0 
  8 12  1  0  0  0  0 
  8 16  1  0  0  0  0 
  9 11  1  0  0  0  0 
  9 13  1  0  0  0  0 
 10 15  1  0  0  0  0 
 10 17  1  0  0  0  0 
 10 18  1  0  0  0  0 
 11 14  1  0  0  0  0 
 12 14  1  0  0  0  0 
 15 20  1  0  0  0  0 
 17 19  1  0  0  0  0 
 19 21  1  0  0  0  0 
 20 21  2  0  0  0  0 
 21 22  1  0  0  0  0 
 23 24  1  0  0  0  0 
M  END
> <ID>
CHEBI:168775

> <NAME>
8-Acetyl-T2 tetrol

$$$$
10337297
  CDK     0409211652

 24 27  0  0  0  0  0  0  0  0999 V2000
    6.4002   -0.5947    0.0000 O   0  0  0  0  0  0  0  0  0  0  0  0
    3.3266    0.4771    0.0000 O   0  0  0  0  0  0  0  0  0  0  0  0
    3.1925    1.6006    0.0000 O   0  0  0  0  0  0  0  0  0  0  0  0
    4.8485    2.5568    0.0000 O   0  0  0  0  0  0  0  0  0  0  0  0
    4.3663   -1.9604    0.0000 O   0  0  0  0  0  0  0  0  0  0  0  0
    2.9291   -2.7088    0.0000 O   0  0  0  0  0  0  0  0  0  0  0  0
    3.5476    2.9258    0.0000 O   0  0  0  0  0  0  0  0  0  0  0  0
    4.7321   -0.0416    0.0000 C   0  0  0  0  0  0  0  0  0  0  0  0
    5.8401   -0.0346    0.0000 C   0  0  0  0  0  0  0  0  0  0  0  0
    3.7649   -0.7273    0.0000 C   0  0  0  0  0  0  0  0  0  0  0  0
    4.9371    0.7235    0.0000 C   0  0  0  0  0  0  0  0  0  0  0  0
    3.9576    1.3956    0.0000 C   0  0  0  0  0  0  0  0  0  0  0  0
    6.6052    0.1704    0.0000 C   0  0  0  0  0  0  0  0  0  0  0  0
    4.6436    1.7917    0.0000 C   0  0  0  0  0  0  0  0  0  0  0  0
    3.1083   -0.2844    0.0000 C   0  0  0  0  0  0  0  0  0  0  0  0
    4.9371   -0.8066    0.0000 C   0  0  0  0  0  0  0  0  0  0  0  0
    3.7201   -1.5511    0.0000 C   0  0  0  0  0  0  0  0  0  0  0  0
    4.4216   -1.1702    0.0000 C   0  0  0  0  0  0  0  0  0  0  0  0
    2.9813   -1.9185    0.0000 C   0  0  0  0  0  0  0  0  0  0  0  0
    2.3613   -0.6345    0.0000 C   0  0  0  0  0  0  0  0  0  0  0  0
    2.2974   -1.4571    0.0000 C   0  0  0  0  0  0  0  0  0  0  0  0
    2.9875    2.3657    0.0000 C   0  0  0  0  0  0  0  0  0  0  0  0
    1.5841   -1.8016    0.0000 C   0  0  0  0  0  0  0  0  0  0  0  0
    2.2225    2.5707    0.0000 C   0  0  0  0  0  0  0  0  0  0  0  0
  1  9  1  0  0  0  0 
  1 13  1  0  0  0  0 
  2 11  1  0  0  0  0 
  2 15  1  0  0  0  0 
  3 12  1  0  0  0  0 
  3 22  1  0  0  0  0 
  4 14  1  0  0  0  0 
  5 18  1  0  0  0  0 
  6 19  1  0  0  0  0 
  7 22  2  0  0  0  0 
  8  9  1  0  0  0  0 
  8 10  1  0  0  0  0 
  8 12  1  0  0  0  0 
  8 16  1  0  0  0  0 
  9 11  1  0  0  0  0 
  9 13  1  0  0  0  0 
 10 15  1  0  0  0  0 
 10 17  1  0  0  0  0 
 10 18  1  0  0  0  0 
 11 14  1  0  0  0  0 
 12 14  1  0  0  0  0 
 15 20  1  0  0  0  0 
 17 19  1  0  0  0  0 
 19 21  1  0  0  0  0 
 20 21  2  0  0  0  0 
 21 23  1  0  0  0  0 
 22 24  1  0  0  0  0 
M  END
> <ID>
CHEBI:169050

> <NAME>
15-Deacetylneosolaniol

$$$$
74105490
  CDK     0409211652

 34 38  0  0  0  0  0  0  0  0999 V2000
    7.0088    3.2747    0.0000 O   0  0  0  0  0  0  0  0  0  0  0  0
    6.7592   -0.1063    0.0000 O   0  0  0  0  0  0  0  0  0  0  0  0
    5.6650   -0.5441    0.0000 O   0  0  0  0  0  0  0  0  0  0  0  0
    4.2567    0.8641    0.0000 O   0  0  0  0  0  0  0  0  0  0  0  0
    8.9310    1.5967    0.0000 O   0  0  0  0  0  0  0  0  0  0  0  0
    4.2361   -0.5441    0.0000 O   0  0  0  0  0  0  0  0  0  0  0  0
    5.6650   -2.1940    0.0000 O   0  0  0  0  0  0  0  0  0  0  0  0
    4.2361   -3.0190    0.0000 O   0  0  0  0  0  0  0  0  0  0  0  0
    8.6583    2.9993    0.0000 O   0  0  0  0  0  0  0  0  0  0  0  0
    2.8073   -2.1940    0.0000 O   0  0  0  0  0  0  0  0  0  0  0  0
    2.0928   -0.9566    0.0000 O   0  0  0  0  0  0  0  0  0  0  0  0
    6.9021    1.4475    0.0000 C   0  0  0  0  0  0  0  0  0  0  0  0
    6.5964    2.5602    0.0000 C   0  0  0  0  0  0  0  0  0  0  0  0
    7.8526    0.6593    0.0000 C   0  0  0  0  0  0  0  0  0  0  0  0
    6.0771    1.4475    0.0000 C   0  0  0  0  0  0  0  0  0  0  0  0
    5.6650    0.2808    0.0000 C   0  0  0  0  0  0  0  0  0  0  0  0
    5.0817    0.8641    0.0000 C   0  0  0  0  0  0  0  0  0  0  0  0
    6.1839    3.2747    0.0000 C   0  0  0  0  0  0  0  0  0  0  0  0
    7.5841   -0.1207    0.0000 C   0  0  0  0  0  0  0  0  0  0  0  0
    7.6166    1.8599    0.0000 C   0  0  0  0  0  0  0  0  0  0  0  0
    8.6935    0.8362    0.0000 C   0  0  0  0  0  0  0  0  0  0  0  0
    8.1212    1.4393    0.0000 C   0  0  0  0  0  0  0  0  0  0  0  0
    8.1377   -0.7778    0.0000 C   0  0  0  0  0  0  0  0  0  0  0  0
    9.2622    0.1920    0.0000 C   0  0  0  0  0  0  0  0  0  0  0  0
    8.9824   -0.6204    0.0000 C   0  0  0  0  0  0  0  0  0  0  0  0
    4.9505   -0.9566    0.0000 C   0  0  0  0  0  0  0  0  0  0  0  0
    9.5213   -1.2451    0.0000 C   0  0  0  0  0  0  0  0  0  0  0  0
    4.9505   -1.7816    0.0000 C   0  0  0  0  0  0  0  0  0  0  0  0
    4.2361   -2.1940    0.0000 C   0  0  0  0  0  0  0  0  0  0  0  0
    9.1996    2.3767    0.0000 C   0  0  0  0  0  0  0  0  0  0  0  0
    3.5217   -0.9566    0.0000 C   0  0  0  0  0  0  0  0  0  0  0  0
    3.5217   -1.7816    0.0000 C   0  0  0  0  0  0  0  0  0  0  0  0
   10.0093    2.5341    0.0000 C   0  0  0  0  0  0  0  0  0  0  0  0
    2.8073   -0.5441    0.0000 C   0  0  0  0  0  0  0  0  0  0  0  0
  1 13  1  0  0  0  0 
  1 18  1  0  0  0  0 
  2 15  1  0  0  0  0 
  2 19  1  0  0  0  0 
  3 16  1  0  0  0  0 
  3 26  1  0  0  0  0 
  4 17  1  0  0  0  0 
  5 22  1  0  0  0  0 
  5 30  1  0  0  0  0 
  6 26  1  0  0  0  0 
  6 31  1  0  0  0  0 
  7 28  1  0  0  0  0 
  8 29  1  0  0  0  0 
  9 30  2  0  0  0  0 
 10 32  1  0  0  0  0 
 11 34  1  0  0  0  0 
 12 13  1  0  0  0  0 
 12 14  1  0  0  0  0 
 12 16  1  0  0  0  0 
 12 20  1  0  0  0  0 
 13 15  1  0  0  0  0 
 13 18  1  0  0  0  0 
 14 19  1  0  0  0  0 
 14 21  1  0  0  0  0 
 14 22  1  0  0  0  0 
 15 17  1  0  0  0  0 
 16 17  1  0  0  0  0 
 19 23  1  0  0  0  0 
 21 24  1  0  0  0  0 
 23 25  2  0  0  0  0 
 24 25  1  0  0  0  0 
 25 27  1  0  0  0  0 
 26 28  1  0  0  0  0 
 28 29  1  0  0  0  0 
 29 32  1  0  0  0  0 
 30 33  1  0  0  0  0 
 31 32  1  0  0  0  0 
 31 34  1  0  0  0  0 
M  END
> <ID>
CHEBI:169090

> <NAME>
15-Acetoxyscirpene-3,4-diol 4-O-a-D-glucopyranoside

$$$$
557474
  CDK     0409211651

 27 30  0  0  0  0  0  0  0  0999 V2000
    6.6660   -1.1173    0.0000 O   0  0  0  0  0  0  0  0  0  0  0  0
    3.4648   -0.0011    0.0000 O   0  0  0  0  0  0  0  0  0  0  0  0
    5.0499    2.1650    0.0000 O   0  0  0  0  0  0  0  0  0  0  0  0
    4.5638   -2.5668    0.0000 O   0  0  0  0  0  0  0  0  0  0  0  0
    5.2266   -1.8365    0.0000 O   0  0  0  0  0  0  0  0  0  0  0  0
    3.0508   -3.3192    0.0000 O   0  0  0  0  0  0  0  0  0  0  0  0
    3.6698    2.5349    0.0000 O   0  0  0  0  0  0  0  0  0  0  0  0
    6.6521   -1.9363    0.0000 O   0  0  0  0  0  0  0  0  0  0  0  0
    4.9286   -0.5413    0.0000 C   0  0  0  0  0  0  0  0  0  0  0  0
    6.0827   -0.5340    0.0000 C   0  0  0  0  0  0  0  0  0  0  0  0
    3.9213   -1.2554    0.0000 C   0  0  0  0  0  0  0  0  0  0  0  0
    5.1421    0.2556    0.0000 C   0  0  0  0  0  0  0  0  0  0  0  0
    4.1220    0.9557    0.0000 C   0  0  0  0  0  0  0  0  0  0  0  0
    6.8795   -0.3205    0.0000 C   0  0  0  0  0  0  0  0  0  0  0  0
    4.8364    1.3682    0.0000 C   0  0  0  0  0  0  0  0  0  0  0  0
    3.2374   -0.7941    0.0000 C   0  0  0  0  0  0  0  0  0  0  0  0
    3.8746   -2.1134    0.0000 C   0  0  0  0  0  0  0  0  0  0  0  0
    4.7151   -1.3381    0.0000 C   0  0  0  0  0  0  0  0  0  0  0  0
    4.4062   -1.9228    0.0000 C   0  0  0  0  0  0  0  0  0  0  0  0
    3.1052   -2.4961    0.0000 C   0  0  0  0  0  0  0  0  0  0  0  0
    2.4594   -1.1588    0.0000 C   0  0  0  0  0  0  0  0  0  0  0  0
    2.3928   -2.0155    0.0000 C   0  0  0  0  0  0  0  0  0  0  0  0
    1.6499   -2.3743    0.0000 C   0  0  0  0  0  0  0  0  0  0  0  0
    4.4666    2.7484    0.0000 C   0  0  0  0  0  0  0  0  0  0  0  0
    5.9106   -2.2978    0.0000 C   0  0  0  0  0  0  0  0  0  0  0  0
    4.6801    3.5452    0.0000 C   0  0  0  0  0  0  0  0  0  0  0  0
    5.8530   -3.1208    0.0000 C   0  0  0  0  0  0  0  0  0  0  0  0
  1 10  1  0  0  0  0 
  1 14  1  0  0  0  0 
  2 12  1  0  0  0  0 
  2 16  1  0  0  0  0 
  3 15  1  0  0  0  0 
  3 24  1  0  0  0  0 
  4 17  1  0  0  0  0 
  5 19  1  0  0  0  0 
  5 25  1  0  0  0  0 
  6 20  1  0  0  0  0 
  7 24  2  0  0  0  0 
  8 25  2  0  0  0  0 
  9 10  1  0  0  0  0 
  9 11  1  0  0  0  0 
  9 13  1  0  0  0  0 
  9 18  1  0  0  0  0 
 10 12  1  0  0  0  0 
 10 14  1  0  0  0  0 
 11 16  1  0  0  0  0 
 11 17  1  0  0  0  0 
 11 19  1  0  0  0  0 
 12 15  1  0  0  0  0 
 13 15  1  0  0  0  0 
 16 21  1  0  0  0  0 
 17 20  1  0  0  0  0 
 20 22  1  0  0  0  0 
 21 22  2  0  0  0  0 
 22 23  1  0  0  0  0 
 24 26  1  0  0  0  0 
 25 27  1  0  0  0  0 
M  END
> <ID>
CHEBI:169114

> <NAME>
7alpha,8alpha-Dihydroxycalonectrin

$$$$
156312
  CDK     0409211652

 26 29  0  0  0  0  0  0  0  0999 V2000
    1.9901   -0.3400    0.0000 O   0  0  0  0  0  0  0  0  0  0  0  0
    5.0641    0.7319    0.0000 O   0  0  0  0  0  0  0  0  0  0  0  0
    5.1982    1.8557    0.0000 O   0  0  0  0  0  0  0  0  0  0  0  0
    3.5420    2.8119    0.0000 O   0  0  0  0  0  0  0  0  0  0  0  0
    4.0242   -1.7058    0.0000 O   0  0  0  0  0  0  0  0  0  0  0  0
    5.4616   -2.4543    0.0000 O   0  0  0  0  0  0  0  0  0  0  0  0
    2.6555   -1.8015    0.0000 O   0  0  0  0  0  0  0  0  0  0  0  0
    3.6584    0.2132    0.0000 C   0  0  1  0  0  0  0  0  0  0  0  0
    2.5503    0.2201    0.0000 C   0  0  2  0  0  0  0  0  0  0  0  0
    4.6257   -0.4726    0.0000 C   0  0  2  0  0  0  0  0  0  0  0  0
    3.4534    0.9783    0.0000 C   0  0  1  0  0  0  0  0  0  0  0  0
    4.4330    1.6507    0.0000 C   0  0  1  0  0  0  0  0  0  0  0  0
    1.7851    0.4251    0.0000 C   0  0  0  0  0  0  0  0  0  0  0  0
    3.7471    2.0467    0.0000 C   0  0  1  0  0  0  0  0  0  0  0  0
    5.2825   -0.0296    0.0000 C   0  0  1  0  0  0  0  0  0  0  0  0
    3.4533   -0.5520    0.0000 C   0  0  0  0  0  0  0  0  0  0  0  0
    4.6706   -1.2964    0.0000 C   0  0  0  0  0  0  0  0  0  0  0  0
    3.9690   -0.9156    0.0000 C   0  0  0  0  0  0  0  0  0  0  0  0
    5.4094   -1.6640    0.0000 C   0  0  1  0  0  0  0  0  0  0  0  0
    6.0296   -0.3798    0.0000 C   0  0  0  0  0  0  0  0  0  0  0  0
    6.0935   -1.2025    0.0000 C   0  0  0  0  0  0  0  0  0  0  0  0
    6.8067   -1.5470    0.0000 C   0  0  0  0  0  0  0  0  0  0  0  0
    3.3675   -2.1488    0.0000 C   0  0  0  0  0  0  0  0  0  0  0  0
    3.4228   -2.9390    0.0000 C   0  0  0  0  0  0  0  0  0  0  0  0
    3.2792    1.6288    0.0000 H   0  0  0  0  0  0  0  0  0  0  0  0
    5.8406    0.3469    0.0000 H   0  0  0  0  0  0  0  0  0  0  0  0
  9  1  1  1  0  0  0 
  1 13  1  0  0  0  0 
  2 11  1  0  0  0  0 
  2 15  1  0  0  0  0 
 12  3  1  1  0  0  0 
 14  4  1  6  0  0  0 
  5 18  1  0  0  0  0 
  5 23  1  0  0  0  0 
 19  6  1  1  0  0  0 
  7 23  2  0  0  0  0 
  8  9  1  0  0  0  0 
  8 10  1  0  0  0  0 
  8 12  1  0  0  0  0 
  8 16  1  1  0  0  0 
  9 11  1  0  0  0  0 
  9 13  1  0  0  0  0 
 10 15  1  0  0  0  0 
 10 17  1  0  0  0  0 
 10 18  1  1  0  0  0 
 11 14  1  0  0  0  0 
 11 25  1  6  0  0  0 
 12 14  1  0  0  0  0 
 15 20  1  0  0  0  0 
 15 26  1  1  0  0  0 
 17 19  1  0  0  0  0 
 19 21  1  0  0  0  0 
 20 21  2  0  0  0  0 
 21 22  1  0  0  0  0 
 23 24  1  0  0  0  0 
M  END
> <ID>
CHEBI:169236

> <NAME>
4-Deacetylneosolaniol

$$$$
536551
  CDK     0409211651

 24 27  0  0  0  0  0  0  0  0999 V2000
    6.4007   -0.6924    0.0000 O   0  0  0  0  0  0  0  0  0  0  0  0
    3.3269    0.3794    0.0000 O   0  0  0  0  0  0  0  0  0  0  0  0
    4.8489    2.4593    0.0000 O   0  0  0  0  0  0  0  0  0  0  0  0
    4.3821   -2.0842    0.0000 O   0  0  0  0  0  0  0  0  0  0  0  0
    5.0186   -1.3830    0.0000 O   0  0  0  0  0  0  0  0  0  0  0  0
    2.9293   -2.8066    0.0000 O   0  0  0  0  0  0  0  0  0  0  0  0
    6.3873   -1.4786    0.0000 O   0  0  0  0  0  0  0  0  0  0  0  0
    4.7325   -0.1392    0.0000 C   0  0  0  0  0  0  0  0  0  0  0  0
    5.8406   -0.1322    0.0000 C   0  0  0  0  0  0  0  0  0  0  0  0
    3.7652   -0.8250    0.0000 C   0  0  0  0  0  0  0  0  0  0  0  0
    4.9375    0.6259    0.0000 C   0  0  0  0  0  0  0  0  0  0  0  0
    3.9579    1.2981    0.0000 C   0  0  0  0  0  0  0  0  0  0  0  0
    6.6057    0.0728    0.0000 C   0  0  0  0  0  0  0  0  0  0  0  0
    4.6440    1.6942    0.0000 C   0  0  0  0  0  0  0  0  0  0  0  0
    3.1085   -0.3819    0.0000 C   0  0  0  0  0  0  0  0  0  0  0  0
    4.5275   -0.9044    0.0000 C   0  0  0  0  0  0  0  0  0  0  0  0
    3.7204   -1.6488    0.0000 C   0  0  0  0  0  0  0  0  0  0  0  0
    4.2308   -1.4657    0.0000 C   0  0  0  0  0  0  0  0  0  0  0  0
    2.3615   -0.7322    0.0000 C   0  0  0  0  0  0  0  0  0  0  0  0
    2.9815   -2.0162    0.0000 C   0  0  0  0  0  0  0  0  0  0  0  0
    2.2976   -1.5548    0.0000 C   0  0  0  0  0  0  0  0  0  0  0  0
    1.5842   -1.8994    0.0000 C   0  0  0  0  0  0  0  0  0  0  0  0
    5.6754   -1.8259    0.0000 C   0  0  0  0  0  0  0  0  0  0  0  0
    5.6200   -2.6161    0.0000 C   0  0  0  0  0  0  0  0  0  0  0  0
  1  9  1  0  0  0  0 
  1 13  1  0  0  0  0 
  2 11  1  0  0  0  0 
  2 15  1  0  0  0  0 
  3 14  1  0  0  0  0 
  4 17  1  0  0  0  0 
  5 18  1  0  0  0  0 
  5 23  1  0  0  0  0 
  6 20  2  0  0  0  0 
  7 23  2  0  0  0  0 
  8  9  1  0  0  0  0 
  8 10  1  0  0  0  0 
  8 12  1  0  0  0  0 
  8 16  1  0  0  0  0 
  9 11  1  0  0  0  0 
  9 13  1  0  0  0  0 
 10 15  1  0  0  0  0 
 10 17  1  0  0  0  0 
 10 18  1  0  0  0  0 
 11 14  1  0  0  0  0 
 12 14  1  0  0  0  0 
 15 19  1  0  0  0  0 
 17 20  1  0  0  0  0 
 19 21  2  0  0  0  0 
 20 21  1  0  0  0  0 
 21 22  1  0  0  0  0 
 23 24  1  0  0  0  0 
M  END
> <ID>
CHEBI:169241

> <NAME>
15-Acetyl-4-deoxynivalenol

$$$$
131835171
  CDK     0409211652

 26 31  0  0  0  0  0  0  0  0999 V2000
    5.0714   -2.6528    0.0000 O   0  0  0  0  0  0  0  0  0  0  0  0
    6.5527   -1.9916    0.0000 O   0  0  0  0  0  0  0  0  0  0  0  0
    6.7188   -0.4449    0.0000 O   0  0  0  0  0  0  0  0  0  0  0  0
    3.9443   -0.3356    0.0000 O   0  0  0  0  0  0  0  0  0  0  0  0
    5.3963    2.1679    0.0000 O   0  0  0  0  0  0  0  0  0  0  0  0
    3.9539    2.1965    0.0000 O   0  0  0  0  0  0  0  0  0  0  0  0
    2.4382    2.2320    0.0000 O   0  0  0  0  0  0  0  0  0  0  0  0
    5.2399   -1.8547    0.0000 C   0  0  0  0  0  0  0  0  0  0  0  0
    5.5689   -1.1088    0.0000 C   0  0  0  0  0  0  0  0  0  0  0  0
    5.8467   -2.3992    0.0000 C   0  0  0  0  0  0  0  0  0  0  0  0
    6.3846   -1.1938    0.0000 C   0  0  0  0  0  0  0  0  0  0  0  0
    5.3963   -0.3071    0.0000 C   0  0  0  0  0  0  0  0  0  0  0  0
    6.1108    0.1054    0.0000 C   0  0  0  0  0  0  0  0  0  0  0  0
    4.6819    0.1054    0.0000 C   0  0  0  0  0  0  0  0  0  0  0  0
    6.1108    0.9304    0.0000 C   0  0  0  0  0  0  0  0  0  0  0  0
    4.6819    0.9304    0.0000 C   0  0  0  0  0  0  0  0  0  0  0  0
    5.3963    1.3429    0.0000 C   0  0  0  0  0  0  0  0  0  0  0  0
    3.9443    1.3716    0.0000 C   0  0  0  0  0  0  0  0  0  0  0  0
    3.1968    0.0883    0.0000 C   0  0  0  0  0  0  0  0  0  0  0  0
    3.1968    0.9476    0.0000 C   0  0  0  0  0  0  0  0  0  0  0  0
    2.4286    1.4071    0.0000 C   0  0  0  0  0  0  0  0  0  0  0  0
    2.4286   -0.3712    0.0000 C   0  0  0  0  0  0  0  0  0  0  0  0
    1.6500    0.9655    0.0000 C   0  0  0  0  0  0  0  0  0  0  0  0
    1.6500    0.0704    0.0000 C   0  0  0  0  0  0  0  0  0  0  0  0
    6.1108    2.5804    0.0000 C   0  0  0  0  0  0  0  0  0  0  0  0
    1.7285    2.6528    0.0000 C   0  0  0  0  0  0  0  0  0  0  0  0
  1  8  1  0  0  0  0 
  1 10  1  0  0  0  0 
  2 10  1  0  0  0  0 
  2 11  1  0  0  0  0 
  3 11  1  0  0  0  0 
  3 13  1  0  0  0  0 
  4 14  1  0  0  0  0 
  4 19  1  0  0  0  0 
  5 17  1  0  0  0  0 
  5 25  1  0  0  0  0 
  6 18  2  0  0  0  0 
  7 21  1  0  0  0  0 
  7 26  1  0  0  0  0 
  8  9  1  0  0  0  0 
  8 10  1  0  0  0  0 
  9 11  1  0  0  0  0 
  9 12  1  0  0  0  0 
 12 13  1  0  0  0  0 
 12 14  2  0  0  0  0 
 13 15  2  0  0  0  0 
 14 16  1  0  0  0  0 
 15 17  1  0  0  0  0 
 16 17  2  0  0  0  0 
 16 18  1  0  0  0  0 
 18 20  1  0  0  0  0 
 19 20  2  0  0  0  0 
 19 22  1  0  0  0  0 
 20 21  1  0  0  0  0 
 21 23  2  0  0  0  0 
 22 24  2  0  0  0  0 
 23 24  1  0  0  0  0 
M  END
> <ID>
CHEBI:169294

> <NAME>
12,16-dimethoxy-5,7,9,21-tetraoxahexacyclo[11.8.0.0?,??.0?,?.0?,?.0??,??]henicosa-1(13),2(10),11,15,17,19-hexaen-14-one

$$$$
599328
  CDK     0510212310

 21 24  0  0  0  0  0  0  0  0999 V2000
    6.4001   -0.4737    0.0000 O   0  0  0  0  0  0  0  0  0  0  0  0
    3.3265    0.5980    0.0000 O   0  0  0  0  0  0  0  0  0  0  0  0
    3.1924    1.7216    0.0000 O   0  0  0  0  0  0  0  0  0  0  0  0
    4.8484    2.6777    0.0000 O   0  0  0  0  0  0  0  0  0  0  0  0
    4.3662   -1.8393    0.0000 O   0  0  0  0  0  0  0  0  0  0  0  0
    2.9291   -2.5878    0.0000 O   0  0  0  0  0  0  0  0  0  0  0  0
    4.7320    0.0794    0.0000 C   0  0  0  0  0  0  0  0  0  0  0  0
    5.8400    0.0863    0.0000 C   0  0  0  0  0  0  0  0  0  0  0  0
    3.7648   -0.6063    0.0000 C   0  0  0  0  0  0  0  0  0  0  0  0
    4.9370    0.8444    0.0000 C   0  0  0  0  0  0  0  0  0  0  0  0
    3.9575    1.5166    0.0000 C   0  0  0  0  0  0  0  0  0  0  0  0
    6.6050    0.2913    0.0000 C   0  0  0  0  0  0  0  0  0  0  0  0
    4.6435    1.9126    0.0000 C   0  0  0  0  0  0  0  0  0  0  0  0
    3.1082   -0.1634    0.0000 C   0  0  0  0  0  0  0  0  0  0  0  0
    4.9370   -0.6857    0.0000 C   0  0  0  0  0  0  0  0  0  0  0  0
    3.7200   -1.4301    0.0000 C   0  0  0  0  0  0  0  0  0  0  0  0
    4.4215   -1.0492    0.0000 C   0  0  0  0  0  0  0  0  0  0  0  0
    2.9813   -1.7975    0.0000 C   0  0  0  0  0  0  0  0  0  0  0  0
    2.3613   -0.5136    0.0000 C   0  0  0  0  0  0  0  0  0  0  0  0
    2.2973   -1.3361    0.0000 C   0  0  0  0  0  0  0  0  0  0  0  0
    1.5841   -1.6806    0.0000 C   0  0  0  0  0  0  0  0  0  0  0  0
  1  8  1  0  0  0  0 
  1 12  1  0  0  0  0 
  2 10  1  0  0  0  0 
  2 14  1  0  0  0  0 
  3 11  1  0  0  0  0 
  4 13  1  0  0  0  0 
  5 17  1  0  0  0  0 
  6 18  1  0  0  0  0 
  7  8  1  0  0  0  0 
  7  9  1  0  0  0  0 
  7 11  1  0  0  0  0 
  7 15  1  0  0  0  0 
  8 10  1  0  0  0  0 
  8 12  1  0  0  0  0 
  9 14  1  0  0  0  0 
  9 16  1  0  0  0  0 
  9 17  1  0  0  0  0 
 10 13  1  0  0  0  0 
 11 13  1  0  0  0  0 
 14 19  1  0  0  0  0 
 16 18  1  0  0  0  0 
 18 20  1  0  0  0  0 
 19 20  2  0  0  0  0 
 20 21  1  0  0  0  0 
M  END
> <ID>
CHEBI:172528

> <NAME>
Toxin T2 tetrol

$$$$
75069422
  CDK     0510212310

 31 34  0  0  0  0  0  0  0  0999 V2000
    7.5733    0.6071    0.0000 O   0  0  0  0  0  0  0  0  0  0  0  0
    4.3722    1.7233    0.0000 O   0  0  0  0  0  0  0  0  0  0  0  0
    4.2325    2.8936    0.0000 O   0  0  0  0  0  0  0  0  0  0  0  0
    5.9573    3.8894    0.0000 O   0  0  0  0  0  0  0  0  0  0  0  0
    5.4551   -0.8152    0.0000 O   0  0  0  0  0  0  0  0  0  0  0  0
    3.9582   -1.5948    0.0000 O   0  0  0  0  0  0  0  0  0  0  0  0
    6.8804   -0.9149    0.0000 O   0  0  0  0  0  0  0  0  0  0  0  0
    2.5324   -1.5006    0.0000 O   0  0  0  0  0  0  0  0  0  0  0  0
    1.6836   -3.5114    0.0000 O   0  0  0  0  0  0  0  0  0  0  0  0
    5.8360    1.1831    0.0000 C   0  0  0  0  0  0  0  0  0  0  0  0
    6.9900    1.1904    0.0000 C   0  0  0  0  0  0  0  0  0  0  0  0
    4.8287    0.4690    0.0000 C   0  0  0  0  0  0  0  0  0  0  0  0
    6.0495    1.9800    0.0000 C   0  0  0  0  0  0  0  0  0  0  0  0
    5.0293    2.6801    0.0000 C   0  0  0  0  0  0  0  0  0  0  0  0
    7.7869    1.4039    0.0000 C   0  0  0  0  0  0  0  0  0  0  0  0
    5.7437    3.0926    0.0000 C   0  0  0  0  0  0  0  0  0  0  0  0
    4.1447    0.9303    0.0000 C   0  0  0  0  0  0  0  0  0  0  0  0
    6.0496    0.3863    0.0000 C   0  0  0  0  0  0  0  0  0  0  0  0
    4.7819   -0.3890    0.0000 C   0  0  0  0  0  0  0  0  0  0  0  0
    5.5126    0.0078    0.0000 C   0  0  0  0  0  0  0  0  0  0  0  0
    4.0126   -0.7717    0.0000 C   0  0  0  0  0  0  0  0  0  0  0  0
    3.3667    0.5656    0.0000 C   0  0  0  0  0  0  0  0  0  0  0  0
    3.3001   -0.2911    0.0000 C   0  0  0  0  0  0  0  0  0  0  0  0
    2.5574   -0.6499    0.0000 C   0  0  0  0  0  0  0  0  0  0  0  0
    6.1390   -1.2765    0.0000 C   0  0  0  0  0  0  0  0  0  0  0  0
    3.2181   -1.9593    0.0000 C   0  0  0  0  0  0  0  0  0  0  0  0
    6.0814   -2.0995    0.0000 C   0  0  0  0  0  0  0  0  0  0  0  0
    3.1638   -2.7824    0.0000 C   0  0  0  0  0  0  0  0  0  0  0  0
    2.4237   -3.1470    0.0000 C   0  0  0  0  0  0  0  0  0  0  0  0
    2.7882   -3.8870    0.0000 C   0  0  0  0  0  0  0  0  0  0  0  0
    2.0592   -2.4069    0.0000 C   0  0  0  0  0  0  0  0  0  0  0  0
  1 11  1  0  0  0  0 
  1 15  1  0  0  0  0 
  2 13  1  0  0  0  0 
  2 17  1  0  0  0  0 
  3 14  1  0  0  0  0 
  4 16  1  0  0  0  0 
  5 20  1  0  0  0  0 
  5 25  1  0  0  0  0 
  6 21  1  0  0  0  0 
  6 26  1  0  0  0  0 
  7 25  2  0  0  0  0 
  8 26  2  0  0  0  0 
  9 29  1  0  0  0  0 
 10 11  1  0  0  0  0 
 10 12  1  0  0  0  0 
 10 14  1  0  0  0  0 
 10 18  1  0  0  0  0 
 11 13  1  0  0  0  0 
 11 15  1  0  0  0  0 
 12 17  1  0  0  0  0 
 12 19  1  0  0  0  0 
 12 20  1  0  0  0  0 
 13 16  1  0  0  0  0 
 14 16  1  0  0  0  0 
 17 22  1  0  0  0  0 
 19 21  1  0  0  0  0 
 21 23  1  0  0  0  0 
 22 23  2  0  0  0  0 
 23 24  1  0  0  0  0 
 25 27  1  0  0  0  0 
 26 28  1  0  0  0  0 
 28 29  1  0  0  0  0 
 29 30  1  0  0  0  0 
 29 31  1  0  0  0  0 
M  END
> <ID>
CHEBI:172679

> <NAME>
3'-Hydroxy-HT2 toxin

$$$$
78169621
  CDK     0510212310

 34 37  0  0  0  0  0  0  0  0999 V2000
    7.5733    0.4811    0.0000 O   0  0  0  0  0  0  0  0  0  0  0  0
    4.3722    1.5974    0.0000 O   0  0  0  0  0  0  0  0  0  0  0  0
    4.2325    2.7676    0.0000 O   0  0  0  0  0  0  0  0  0  0  0  0
    5.9573    3.7634    0.0000 O   0  0  0  0  0  0  0  0  0  0  0  0
    5.4551   -0.9412    0.0000 O   0  0  0  0  0  0  0  0  0  0  0  0
    3.9582   -1.7208    0.0000 O   0  0  0  0  0  0  0  0  0  0  0  0
    4.6023    4.1478    0.0000 O   0  0  0  0  0  0  0  0  0  0  0  0
    6.8804   -1.0409    0.0000 O   0  0  0  0  0  0  0  0  0  0  0  0
    2.5324   -1.6266    0.0000 O   0  0  0  0  0  0  0  0  0  0  0  0
    1.6836   -3.6374    0.0000 O   0  0  0  0  0  0  0  0  0  0  0  0
    5.8360    1.0572    0.0000 C   0  0  0  0  0  0  0  0  0  0  0  0
    6.9900    1.0644    0.0000 C   0  0  0  0  0  0  0  0  0  0  0  0
    4.8287    0.3430    0.0000 C   0  0  0  0  0  0  0  0  0  0  0  0
    6.0495    1.8540    0.0000 C   0  0  0  0  0  0  0  0  0  0  0  0
    5.0293    2.5541    0.0000 C   0  0  0  0  0  0  0  0  0  0  0  0
    7.7869    1.2779    0.0000 C   0  0  0  0  0  0  0  0  0  0  0  0
    5.7437    2.9665    0.0000 C   0  0  0  0  0  0  0  0  0  0  0  0
    4.1447    0.8043    0.0000 C   0  0  0  0  0  0  0  0  0  0  0  0
    6.0496    0.2604    0.0000 C   0  0  0  0  0  0  0  0  0  0  0  0
    4.7819   -0.5150    0.0000 C   0  0  0  0  0  0  0  0  0  0  0  0
    5.5126   -0.1183    0.0000 C   0  0  0  0  0  0  0  0  0  0  0  0
    4.0126   -0.8976    0.0000 C   0  0  0  0  0  0  0  0  0  0  0  0
    3.3667    0.4396    0.0000 C   0  0  0  0  0  0  0  0  0  0  0  0
    3.3001   -0.4171    0.0000 C   0  0  0  0  0  0  0  0  0  0  0  0
    4.0190    3.5645    0.0000 C   0  0  0  0  0  0  0  0  0  0  0  0
    2.5574   -0.7759    0.0000 C   0  0  0  0  0  0  0  0  0  0  0  0
    6.1390   -1.4025    0.0000 C   0  0  0  0  0  0  0  0  0  0  0  0
    3.2221    3.7780    0.0000 C   0  0  0  0  0  0  0  0  0  0  0  0
    3.2181   -2.0853    0.0000 C   0  0  0  0  0  0  0  0  0  0  0  0
    6.0814   -2.2255    0.0000 C   0  0  0  0  0  0  0  0  0  0  0  0
    3.1638   -2.9085    0.0000 C   0  0  0  0  0  0  0  0  0  0  0  0
    2.4237   -3.2729    0.0000 C   0  0  0  0  0  0  0  0  0  0  0  0
    2.7882   -4.0130    0.0000 C   0  0  0  0  0  0  0  0  0  0  0  0
    2.0592   -2.5329    0.0000 C   0  0  0  0  0  0  0  0  0  0  0  0
  1 12  1  0  0  0  0 
  1 16  1  0  0  0  0 
  2 14  1  0  0  0  0 
  2 18  1  0  0  0  0 
  3 15  1  0  0  0  0 
  3 25  1  0  0  0  0 
  4 17  1  0  0  0  0 
  5 21  1  0  0  0  0 
  5 27  1  0  0  0  0 
  6 22  1  0  0  0  0 
  6 29  1  0  0  0  0 
  7 25  2  0  0  0  0 
  8 27  2  0  0  0  0 
  9 29  2  0  0  0  0 
 10 32  1  0  0  0  0 
 11 12  1  0  0  0  0 
 11 13  1  0  0  0  0 
 11 15  1  0  0  0  0 
 11 19  1  0  0  0  0 
 12 14  1  0  0  0  0 
 12 16  1  0  0  0  0 
 13 18  1  0  0  0  0 
 13 20  1  0  0  0  0 
 13 21  1  0  0  0  0 
 14 17  1  0  0  0  0 
 15 17  1  0  0  0  0 
 18 23  1  0  0  0  0 
 20 22  1  0  0  0  0 
 22 24  1  0  0  0  0 
 23 24  2  0  0  0  0 
 24 26  1  0  0  0  0 
 25 28  1  0  0  0  0 
 27 30  1  0  0  0  0 
 29 31  1  0  0  0  0 
 31 32  1  0  0  0  0 
 32 33  1  0  0  0  0 
 32 34  1  0  0  0  0 
M  END
> <ID>
CHEBI:172708

> <NAME>
3'-Hydroxy-T2 Toxin

$$$$
546103
  CDK     0510212310

 36 39  0  0  0  0  0  0  0  0999 V2000
    7.4855    0.1423    0.0000 O   0  0  0  0  0  0  0  0  0  0  0  0
    4.2842    1.2585    0.0000 O   0  0  0  0  0  0  0  0  0  0  0  0
    4.1445    2.4288    0.0000 O   0  0  0  0  0  0  0  0  0  0  0  0
    5.8694    3.4246    0.0000 O   0  0  0  0  0  0  0  0  0  0  0  0
    5.3671   -1.2801    0.0000 O   0  0  0  0  0  0  0  0  0  0  0  0
    3.8702   -2.0597    0.0000 O   0  0  0  0  0  0  0  0  0  0  0  0
    4.5143    3.8091    0.0000 O   0  0  0  0  0  0  0  0  0  0  0  0
    7.2495    3.0548    0.0000 O   0  0  0  0  0  0  0  0  0  0  0  0
    6.7925   -1.3798    0.0000 O   0  0  0  0  0  0  0  0  0  0  0  0
    2.4444   -1.9655    0.0000 O   0  0  0  0  0  0  0  0  0  0  0  0
    5.7480    0.7183    0.0000 C   0  0  0  0  0  0  0  0  0  0  0  0
    6.9021    0.7256    0.0000 C   0  0  0  0  0  0  0  0  0  0  0  0
    4.7407    0.0042    0.0000 C   0  0  0  0  0  0  0  0  0  0  0  0
    5.9615    1.5152    0.0000 C   0  0  0  0  0  0  0  0  0  0  0  0
    4.9413    2.2153    0.0000 C   0  0  0  0  0  0  0  0  0  0  0  0
    5.6559    2.6278    0.0000 C   0  0  0  0  0  0  0  0  0  0  0  0
    7.6990    0.9391    0.0000 C   0  0  0  0  0  0  0  0  0  0  0  0
    4.0568    0.4655    0.0000 C   0  0  0  0  0  0  0  0  0  0  0  0
    5.9616   -0.0785    0.0000 C   0  0  0  0  0  0  0  0  0  0  0  0
    4.6940   -0.8538    0.0000 C   0  0  0  0  0  0  0  0  0  0  0  0
    5.4246   -0.4571    0.0000 C   0  0  0  0  0  0  0  0  0  0  0  0
    3.9246   -1.2365    0.0000 C   0  0  0  0  0  0  0  0  0  0  0  0
    3.2787    0.1007    0.0000 C   0  0  0  0  0  0  0  0  0  0  0  0
    3.2121   -0.7560    0.0000 C   0  0  0  0  0  0  0  0  0  0  0  0
    3.9310    3.2256    0.0000 C   0  0  0  0  0  0  0  0  0  0  0  0
    2.4693   -1.1148    0.0000 C   0  0  0  0  0  0  0  0  0  0  0  0
    6.6662    3.6381    0.0000 C   0  0  0  0  0  0  0  0  0  0  0  0
    6.0510   -1.7414    0.0000 C   0  0  0  0  0  0  0  0  0  0  0  0
    3.1342    3.4392    0.0000 C   0  0  0  0  0  0  0  0  0  0  0  0
    3.1301   -2.4242    0.0000 C   0  0  0  0  0  0  0  0  0  0  0  0
    6.8797    4.4351    0.0000 C   0  0  0  0  0  0  0  0  0  0  0  0
    5.9935   -2.5643    0.0000 C   0  0  0  0  0  0  0  0  0  0  0  0
    3.0757   -3.2473    0.0000 C   0  0  0  0  0  0  0  0  0  0  0  0
    2.3357   -3.6119    0.0000 C   0  0  0  0  0  0  0  0  0  0  0  0
    2.2813   -4.4351    0.0000 C   0  0  0  0  0  0  0  0  0  0  0  0
    1.6499   -3.1532    0.0000 C   0  0  0  0  0  0  0  0  0  0  0  0
  1 12  1  0  0  0  0 
  1 17  1  0  0  0  0 
  2 14  1  0  0  0  0 
  2 18  1  0  0  0  0 
  3 15  1  0  0  0  0 
  3 25  1  0  0  0  0 
  4 16  1  0  0  0  0 
  4 27  1  0  0  0  0 
  5 21  1  0  0  0  0 
  5 28  1  0  0  0  0 
  6 22  1  0  0  0  0 
  6 30  1  0  0  0  0 
  7 25  2  0  0  0  0 
  8 27  2  0  0  0  0 
  9 28  2  0  0  0  0 
 10 30  2  0  0  0  0 
 11 12  1  0  0  0  0 
 11 13  1  0  0  0  0 
 11 15  1  0  0  0  0 
 11 19  1  0  0  0  0 
 12 14  1  0  0  0  0 
 12 17  1  0  0  0  0 
 13 18  1  0  0  0  0 
 13 20  1  0  0  0  0 
 13 21  1  0  0  0  0 
 14 16  1  0  0  0  0 
 15 16  1  0  0  0  0 
 18 23  1  0  0  0  0 
 20 22  1  0  0  0  0 
 22 24  1  0  0  0  0 
 23 24  2  0  0  0  0 
 24 26  1  0  0  0  0 
 25 29  1  0  0  0  0 
 27 31  1  0  0  0  0 
 28 32  1  0  0  0  0 
 30 33  1  0  0  0  0 
 33 34  1  0  0  0  0 
 34 35  1  0  0  0  0 
 34 36  1  0  0  0  0 
M  END
> <ID>
CHEBI:172720

> <NAME>
Acetyl-T2 Toxin

$$$$
5486185
  CDK     0602212311

 23 27  0  0  0  0  0  0  0  0999 V2000
    2.9062   -1.7297    0.0000 O   0  0  0  0  0  0  0  0  0  0  0  0
    1.6499   -0.8125    0.0000 O   0  0  0  0  0  0  0  0  0  0  0  0
    4.3880    0.6184    0.0000 O   0  0  0  0  0  0  0  0  0  0  0  0
    5.8301   -1.8907    0.0000 O   0  0  0  0  0  0  0  0  0  0  0  0
    6.5760   -0.6559    0.0000 O   0  0  0  0  0  0  0  0  0  0  0  0
    7.3645    0.6389    0.0000 O   0  0  0  0  0  0  0  0  0  0  0  0
    2.9062   -0.4019    0.0000 C   0  0  0  0  0  0  0  0  0  0  0  0
    2.4248   -1.0657    0.0000 C   0  0  0  0  0  0  0  0  0  0  0  0
    3.6868   -0.6533    0.0000 C   0  0  0  0  0  0  0  0  0  0  0  0
    3.6868   -1.4782    0.0000 C   0  0  0  0  0  0  0  0  0  0  0  0
    4.4012   -0.2408    0.0000 C   0  0  0  0  0  0  0  0  0  0  0  0
    2.4248    0.2560    0.0000 C   0  0  0  0  0  0  0  0  0  0  0  0
    5.1157   -0.6533    0.0000 C   0  0  0  0  0  0  0  0  0  0  0  0
    4.4012   -1.8907    0.0000 C   0  0  0  0  0  0  0  0  0  0  0  0
    1.6499    0.0027    0.0000 C   0  0  0  0  0  0  0  0  0  0  0  0
    5.1157   -1.4782    0.0000 C   0  0  0  0  0  0  0  0  0  0  0  0
    5.8664   -0.2352    0.0000 C   0  0  0  0  0  0  0  0  0  0  0  0
    5.8730    0.6241    0.0000 C   0  0  0  0  0  0  0  0  0  0  0  0
    5.1288    1.0537    0.0000 C   0  0  0  0  0  0  0  0  0  0  0  0
    6.6549    1.0596    0.0000 C   0  0  0  0  0  0  0  0  0  0  0  0
    5.1150    1.9487    0.0000 C   0  0  0  0  0  0  0  0  0  0  0  0
    6.6619    1.9546    0.0000 C   0  0  0  0  0  0  0  0  0  0  0  0
    5.8867    2.4022    0.0000 C   0  0  0  0  0  0  0  0  0  0  0  0
  1  8  1  0  0  0  0 
  1 10  1  0  0  0  0 
  2  8  1  0  0  0  0 
  2 15  1  0  0  0  0 
  3 11  1  0  0  0  0 
  3 19  1  0  0  0  0 
  4 16  1  0  0  0  0 
  5 17  2  0  0  0  0 
  6 20  1  0  0  0  0 
  7  8  1  0  0  0  0 
  7  9  1  0  0  0  0 
  7 12  1  0  0  0  0 
  9 10  2  0  0  0  0 
  9 11  1  0  0  0  0 
 10 14  1  0  0  0  0 
 11 13  2  0  0  0  0 
 12 15  2  0  0  0  0 
 13 16  1  0  0  0  0 
 13 17  1  0  0  0  0 
 14 16  2  0  0  0  0 
 17 18  1  0  0  0  0 
 18 19  1  0  0  0  0 
 18 20  2  0  0  0  0 
 19 21  2  0  0  0  0 
 20 22  1  0  0  0  0 
 21 23  1  0  0  0  0 
 22 23  2  0  0  0  0 
M  END
> <ID>
CHEBI:174227

> <NAME>
De-O-methylsterigmatocystin

$$$$
5486528
  CDK     0602212311

 23 27  0  0  0  0  0  0  0  0999 V2000
    1.6499   -0.8125    0.0000 O   0  0  0  0  0  0  0  0  0  0  0  0
    2.9062   -1.7297    0.0000 O   0  0  0  0  0  0  0  0  0  0  0  0
    4.3880    0.6184    0.0000 O   0  0  0  0  0  0  0  0  0  0  0  0
    5.8301   -1.8907    0.0000 O   0  0  0  0  0  0  0  0  0  0  0  0
    6.5760   -0.6559    0.0000 O   0  0  0  0  0  0  0  0  0  0  0  0
    7.3645    0.6389    0.0000 O   0  0  0  0  0  0  0  0  0  0  0  0
    2.9062   -0.4019    0.0000 C   0  0  0  0  0  0  0  0  0  0  0  0
    2.4248   -1.0657    0.0000 C   0  0  0  0  0  0  0  0  0  0  0  0
    2.4248    0.2560    0.0000 C   0  0  0  0  0  0  0  0  0  0  0  0
    3.6868   -0.6533    0.0000 C   0  0  0  0  0  0  0  0  0  0  0  0
    1.6499    0.0027    0.0000 C   0  0  0  0  0  0  0  0  0  0  0  0
    3.6868   -1.4782    0.0000 C   0  0  0  0  0  0  0  0  0  0  0  0
    4.4012   -0.2408    0.0000 C   0  0  0  0  0  0  0  0  0  0  0  0
    5.1157   -0.6533    0.0000 C   0  0  0  0  0  0  0  0  0  0  0  0
    4.4012   -1.8907    0.0000 C   0  0  0  0  0  0  0  0  0  0  0  0
    5.1157   -1.4782    0.0000 C   0  0  0  0  0  0  0  0  0  0  0  0
    5.8664   -0.2352    0.0000 C   0  0  0  0  0  0  0  0  0  0  0  0
    5.8730    0.6241    0.0000 C   0  0  0  0  0  0  0  0  0  0  0  0
    5.1288    1.0537    0.0000 C   0  0  0  0  0  0  0  0  0  0  0  0
    6.6549    1.0596    0.0000 C   0  0  0  0  0  0  0  0  0  0  0  0
    5.1150    1.9487    0.0000 C   0  0  0  0  0  0  0  0  0  0  0  0
    6.6619    1.9546    0.0000 C   0  0  0  0  0  0  0  0  0  0  0  0
    5.8867    2.4022    0.0000 C   0  0  0  0  0  0  0  0  0  0  0  0
  1  8  1  0  0  0  0 
  1 11  1  0  0  0  0 
  2  8  1  0  0  0  0 
  2 12  1  0  0  0  0 
  3 13  1  0  0  0  0 
  3 19  1  0  0  0  0 
  4 16  1  0  0  0  0 
  5 17  2  0  0  0  0 
  6 20  1  0  0  0  0 
  7  8  1  0  0  0  0 
  7  9  1  0  0  0  0 
  7 10  1  0  0  0  0 
  9 11  1  0  0  0  0 
 10 12  2  0  0  0  0 
 10 13  1  0  0  0  0 
 12 15  1  0  0  0  0 
 13 14  2  0  0  0  0 
 14 16  1  0  0  0  0 
 14 17  1  0  0  0  0 
 15 16  2  0  0  0  0 
 17 18  1  0  0  0  0 
 18 19  1  0  0  0  0 
 18 20  2  0  0  0  0 
 19 21  2  0  0  0  0 
 20 22  1  0  0  0  0 
 21 23  1  0  0  0  0 
 22 23  2  0  0  0  0 
M  END
> <ID>
CHEBI:174245

> <NAME>
De-O-methyldihydrosterigmatocystin

$$$$
127380
  CDK     0602212311

 21 24  0  0  0  0  0  0  0  0999 V2000
    6.4001   -0.3939    0.0000 O   0  0  0  0  0  0  0  0  0  0  0  0
    3.3265    0.6778    0.0000 O   0  0  0  0  0  0  0  0  0  0  0  0
    3.1924    1.8014    0.0000 O   0  0  0  0  0  0  0  0  0  0  0  0
    4.3817   -1.7855    0.0000 O   0  0  0  0  0  0  0  0  0  0  0  0
    4.7320    0.1592    0.0000 C   0  0  0  0  0  0  0  0  0  0  0  0
    5.8400    0.1662    0.0000 C   0  0  0  0  0  0  0  0  0  0  0  0
    3.7648   -0.5265    0.0000 C   0  0  2  0  0  0  0  0  0  0  0  0
    4.9370    0.9242    0.0000 C   0  0  1  0  0  0  0  0  0  0  0  0
    3.9575    1.5965    0.0000 C   0  0  1  0  0  0  0  0  0  0  0  0
    6.6050    0.3712    0.0000 C   0  0  0  0  0  0  0  0  0  0  0  0
    4.6435    1.9925    0.0000 C   0  0  0  0  0  0  0  0  0  0  0  0
    3.1082   -0.0836    0.0000 C   0  0  1  0  0  0  0  0  0  0  0  0
    3.7200   -1.3503    0.0000 C   0  0  1  0  0  0  0  0  0  0  0  0
    4.9370   -0.6058    0.0000 C   0  0  0  0  0  0  0  0  0  0  0  0
    4.4215   -0.9694    0.0000 C   0  0  0  0  0  0  0  0  0  0  0  0
    2.9813   -1.7176    0.0000 C   0  0  0  0  0  0  0  0  0  0  0  0
    2.3613   -0.4337    0.0000 C   0  0  0  0  0  0  0  0  0  0  0  0
    2.2973   -1.2563    0.0000 C   0  0  0  0  0  0  0  0  0  0  0  0
    1.5841   -1.6007    0.0000 C   0  0  0  0  0  0  0  0  0  0  0  0
    5.1112    1.5746    0.0000 H   0  0  0  0  0  0  0  0  0  0  0  0
    2.5501    0.2930    0.0000 H   0  0  0  0  0  0  0  0  0  0  0  0
  1  6  1  0  0  0  0 
  1 10  1  0  0  0  0 
  2  8  1  0  0  0  0 
  2 12  1  0  0  0  0 
  9  3  1  6  0  0  0 
 13  4  1  6  0  0  0 
  5  6  1  0  0  0  0 
  5  7  1  0  0  0  0 
  5  9  1  0  0  0  0 
  5 14  1  0  0  0  0 
  6  8  1  0  0  0  0 
  6 10  1  0  0  0  0 
  7 12  1  0  0  0  0 
  7 13  1  0  0  0  0 
  7 15  1  6  0  0  0 
  8 11  1  0  0  0  0 
  8 20  1  1  0  0  0 
  9 11  1  0  0  0  0 
 12 17  1  0  0  0  0 
 12 21  1  6  0  0  0 
 13 16  1  0  0  0  0 
 16 18  1  0  0  0  0 
 17 18  2  0  0  0  0 
 18 19  1  0  0  0  0 
M  END
> <ID>
CHEBI:174517

> <NAME>
7-Hydroxytrichodermol

$$$$
3570295
  CDK     0602212311

 20 23  0  0  0  0  0  0  0  0999 V2000
    6.4001   -0.8191    0.0000 O   0  0  0  0  0  0  0  0  0  0  0  0
    3.3265    0.2526    0.0000 O   0  0  0  0  0  0  0  0  0  0  0  0
    3.1924    1.3762    0.0000 O   0  0  0  0  0  0  0  0  0  0  0  0
    4.8484    2.3323    0.0000 O   0  0  0  0  0  0  0  0  0  0  0  0
    4.3662   -2.1847    0.0000 O   0  0  0  0  0  0  0  0  0  0  0  0
    4.7320   -0.2660    0.0000 C   0  0  0  0  0  0  0  0  0  0  0  0
    5.8400   -0.2591    0.0000 C   0  0  0  0  0  0  0  0  0  0  0  0
    3.7648   -0.9517    0.0000 C   0  0  0  0  0  0  0  0  0  0  0  0
    4.9370    0.4990    0.0000 C   0  0  0  0  0  0  0  0  0  0  0  0
    3.9575    1.1711    0.0000 C   0  0  0  0  0  0  0  0  0  0  0  0
    6.6050   -0.0541    0.0000 C   0  0  0  0  0  0  0  0  0  0  0  0
    4.6435    1.5671    0.0000 C   0  0  0  0  0  0  0  0  0  0  0  0
    3.1082   -0.5088    0.0000 C   0  0  0  0  0  0  0  0  0  0  0  0
    4.9370   -1.0311    0.0000 C   0  0  0  0  0  0  0  0  0  0  0  0
    3.7200   -1.7755    0.0000 C   0  0  0  0  0  0  0  0  0  0  0  0
    4.4215   -1.3946    0.0000 C   0  0  0  0  0  0  0  0  0  0  0  0
    2.3613   -0.8590    0.0000 C   0  0  0  0  0  0  0  0  0  0  0  0
    2.9813   -2.1429    0.0000 C   0  0  0  0  0  0  0  0  0  0  0  0
    2.2973   -1.6815    0.0000 C   0  0  0  0  0  0  0  0  0  0  0  0
    1.5841   -2.0260    0.0000 C   0  0  0  0  0  0  0  0  0  0  0  0
  1  7  1  0  0  0  0 
  1 11  1  0  0  0  0 
  2  9  1  0  0  0  0 
  2 13  1  0  0  0  0 
  3 10  1  0  0  0  0 
  4 12  1  0  0  0  0 
  5 16  1  0  0  0  0 
  6  7  1  0  0  0  0 
  6  8  1  0  0  0  0 
  6 10  1  0  0  0  0 
  6 14  1  0  0  0  0 
  7  9  1  0  0  0  0 
  7 11  1  0  0  0  0 
  8 13  1  0  0  0  0 
  8 15  1  0  0  0  0 
  8 16  1  0  0  0  0 
  9 12  1  0  0  0  0 
 10 12  1  0  0  0  0 
 13 17  1  0  0  0  0 
 15 18  1  0  0  0  0 
 17 19  2  0  0  0  0 
 18 19  1  0  0  0  0 
 19 20  1  0  0  0  0 
M  END
> <ID>
CHEBI:174700

> <NAME>
Anguidol

$$$$
14587765
  CDK     0602212312

 21 24  0  0  0  0  0  0  0  0999 V2000
    6.3999   -0.5838    0.0000 O   0  0  0  0  0  0  0  0  0  0  0  0
    3.3265    0.4879    0.0000 O   0  0  0  0  0  0  0  0  0  0  0  0
    4.8484    2.5675    0.0000 O   0  0  0  0  0  0  0  0  0  0  0  0
    4.3816   -1.9754    0.0000 O   0  0  0  0  0  0  0  0  0  0  0  0
    5.0180   -1.2743    0.0000 O   0  0  0  0  0  0  0  0  0  0  0  0
    2.9290   -2.6978    0.0000 O   0  0  0  0  0  0  0  0  0  0  0  0
    4.7319   -0.0307    0.0000 C   0  0  0  0  0  0  0  0  0  0  0  0
    5.8399   -0.0238    0.0000 C   0  0  0  0  0  0  0  0  0  0  0  0
    3.7648   -0.7163    0.0000 C   0  0  0  0  0  0  0  0  0  0  0  0
    4.9369    0.7343    0.0000 C   0  0  0  0  0  0  0  0  0  0  0  0
    3.9575    1.4065    0.0000 C   0  0  0  0  0  0  0  0  0  0  0  0
    6.6049    0.1813    0.0000 C   0  0  0  0  0  0  0  0  0  0  0  0
    4.6434    1.8025    0.0000 C   0  0  0  0  0  0  0  0  0  0  0  0
    3.1082   -0.2734    0.0000 C   0  0  0  0  0  0  0  0  0  0  0  0
    3.7199   -1.5401    0.0000 C   0  0  0  0  0  0  0  0  0  0  0  0
    4.5269   -0.7958    0.0000 C   0  0  0  0  0  0  0  0  0  0  0  0
    4.2303   -1.3571    0.0000 C   0  0  0  0  0  0  0  0  0  0  0  0
    2.9812   -1.9075    0.0000 C   0  0  0  0  0  0  0  0  0  0  0  0
    2.3612   -0.6236    0.0000 C   0  0  0  0  0  0  0  0  0  0  0  0
    2.2973   -1.4462    0.0000 C   0  0  0  0  0  0  0  0  0  0  0  0
    1.5841   -1.7906    0.0000 C   0  0  0  0  0  0  0  0  0  0  0  0
  1  8  1  0  0  0  0 
  1 12  1  0  0  0  0 
  2 10  1  0  0  0  0 
  2 14  1  0  0  0  0 
  3 13  1  0  0  0  0 
  4 15  1  0  0  0  0 
  5 17  1  0  0  0  0 
  6 18  1  0  0  0  0 
  7  8  1  0  0  0  0 
  7  9  1  0  0  0  0 
  7 11  1  0  0  0  0 
  7 16  1  0  0  0  0 
  8 10  1  0  0  0  0 
  8 12  1  0  0  0  0 
  9 14  1  0  0  0  0 
  9 15  1  0  0  0  0 
  9 17  1  0  0  0  0 
 10 13  1  0  0  0  0 
 11 13  1  0  0  0  0 
 14 19  1  0  0  0  0 
 15 18  1  0  0  0  0 
 18 20  1  0  0  0  0 
 19 20  2  0  0  0  0 
 20 21  1  0  0  0  0 
M  END
> <ID>
CHEBI:174839

> <NAME>
3,7,8,15-Scirpenetetrol

$$$$
608974
  CDK     0602212312

 27 30  0  0  0  0  0  0  0  0999 V2000
    7.4852    0.5813    0.0000 O   0  0  0  0  0  0  0  0  0  0  0  0
    4.2840    1.6975    0.0000 O   0  0  0  0  0  0  0  0  0  0  0  0
    4.1444    2.8678    0.0000 O   0  0  0  0  0  0  0  0  0  0  0  0
    5.8692    3.8636    0.0000 O   0  0  0  0  0  0  0  0  0  0  0  0
    5.3669   -0.8410    0.0000 O   0  0  0  0  0  0  0  0  0  0  0  0
    3.8701   -1.6206    0.0000 O   0  0  0  0  0  0  0  0  0  0  0  0
    2.4443   -1.5265    0.0000 O   0  0  0  0  0  0  0  0  0  0  0  0
    5.7478    1.1573    0.0000 C   0  0  0  0  0  0  0  0  0  0  0  0
    6.9019    1.1646    0.0000 C   0  0  0  0  0  0  0  0  0  0  0  0
    4.7406    0.4432    0.0000 C   0  0  0  0  0  0  0  0  0  0  0  0
    5.9613    1.9541    0.0000 C   0  0  0  0  0  0  0  0  0  0  0  0
    4.9412    2.6542    0.0000 C   0  0  0  0  0  0  0  0  0  0  0  0
    7.6987    1.3781    0.0000 C   0  0  0  0  0  0  0  0  0  0  0  0
    5.6557    3.0667    0.0000 C   0  0  0  0  0  0  0  0  0  0  0  0
    4.0567    0.9045    0.0000 C   0  0  0  0  0  0  0  0  0  0  0  0
    5.9614    0.3605    0.0000 C   0  0  0  0  0  0  0  0  0  0  0  0
    4.6939   -0.4149    0.0000 C   0  0  0  0  0  0  0  0  0  0  0  0
    5.4244   -0.0181    0.0000 C   0  0  0  0  0  0  0  0  0  0  0  0
    3.9244   -0.7975    0.0000 C   0  0  0  0  0  0  0  0  0  0  0  0
    3.2786    0.5398    0.0000 C   0  0  0  0  0  0  0  0  0  0  0  0
    3.2120   -0.3169    0.0000 C   0  0  0  0  0  0  0  0  0  0  0  0
    2.4692   -0.6757    0.0000 C   0  0  0  0  0  0  0  0  0  0  0  0
    3.1300   -1.9852    0.0000 C   0  0  0  0  0  0  0  0  0  0  0  0
    3.0756   -2.8083    0.0000 C   0  0  0  0  0  0  0  0  0  0  0  0
    2.3356   -3.1727    0.0000 C   0  0  0  0  0  0  0  0  0  0  0  0
    2.2812   -3.9959    0.0000 C   0  0  0  0  0  0  0  0  0  0  0  0
    1.6499   -2.7141    0.0000 C   0  0  0  0  0  0  0  0  0  0  0  0
  1  9  1  0  0  0  0 
  1 13  1  0  0  0  0 
  2 11  1  0  0  0  0 
  2 15  1  0  0  0  0 
  3 12  1  0  0  0  0 
  4 14  1  0  0  0  0 
  5 18  1  0  0  0  0 
  6 19  1  0  0  0  0 
  6 23  1  0  0  0  0 
  7 23  2  0  0  0  0 
  8  9  1  0  0  0  0 
  8 10  1  0  0  0  0 
  8 12  1  0  0  0  0 
  8 16  1  0  0  0  0 
  9 11  1  0  0  0  0 
  9 13  1  0  0  0  0 
 10 15  1  0  0  0  0 
 10 17  1  0  0  0  0 
 10 18  1  0  0  0  0 
 11 14  1  0  0  0  0 
 12 14  1  0  0  0  0 
 15 20  1  0  0  0  0 
 17 19  1  0  0  0  0 
 19 21  1  0  0  0  0 
 20 21  2  0  0  0  0 
 21 22  1  0  0  0  0 
 23 24  1  0  0  0  0 
 24 25  1  0  0  0  0 
 25 26  1  0  0  0  0 
 25 27  1  0  0  0  0 
M  END
> <ID>
CHEBI:175043

> <NAME>
T2 Triol

$$$$
155564
  CDK     0602212312

 25 28  0  0  0  0  0  0  0  0999 V2000
    1.8025   -1.4182    0.0000 O   0  0  0  0  0  0  0  0  0  0  0  0
    4.8760   -0.3464    0.0000 O   0  0  0  0  0  0  0  0  0  0  0  0
    5.0101    0.7772    0.0000 O   0  0  0  0  0  0  0  0  0  0  0  0
    3.3541    1.7332    0.0000 O   0  0  0  0  0  0  0  0  0  0  0  0
    3.8363   -2.7837    0.0000 O   0  0  0  0  0  0  0  0  0  0  0  0
    4.6793    2.0883    0.0000 O   0  0  0  0  0  0  0  0  0  0  0  0
    3.4706   -0.8651    0.0000 C   0  0  1  0  0  0  0  0  0  0  0  0
    2.3625   -0.8581    0.0000 C   0  0  2  0  0  0  0  0  0  0  0  0
    4.4377   -1.5508    0.0000 C   0  0  2  0  0  0  0  0  0  0  0  0
    3.2656   -0.1000    0.0000 C   0  0  1  0  0  0  0  0  0  0  0  0
    4.2451    0.5722    0.0000 C   0  0  1  0  0  0  0  0  0  0  0  0
    3.5591    0.9682    0.0000 C   0  0  1  0  0  0  0  0  0  0  0  0
    1.5975   -0.6531    0.0000 C   0  0  0  0  0  0  0  0  0  0  0  0
    5.0943   -1.1078    0.0000 C   0  0  1  0  0  0  0  0  0  0  0  0
    3.2655   -1.6301    0.0000 C   0  0  0  0  0  0  0  0  0  0  0  0
    4.4825   -2.3746    0.0000 C   0  0  0  0  0  0  0  0  0  0  0  0
    3.7811   -1.9937    0.0000 C   0  0  0  0  0  0  0  0  0  0  0  0
    5.8414   -1.4580    0.0000 C   0  0  0  0  0  0  0  0  0  0  0  0
    5.2213   -2.7419    0.0000 C   0  0  0  0  0  0  0  0  0  0  0  0
    5.9052   -2.2805    0.0000 C   0  0  0  0  0  0  0  0  0  0  0  0
    6.6184   -2.6250    0.0000 C   0  0  0  0  0  0  0  0  0  0  0  0
    3.9141    2.2933    0.0000 C   0  0  0  0  0  0  0  0  0  0  0  0
    3.7092    3.0583    0.0000 C   0  0  0  0  0  0  0  0  0  0  0  0
    3.0914    0.5503    0.0000 H   0  0  0  0  0  0  0  0  0  0  0  0
    5.6524   -0.7314    0.0000 H   0  0  0  0  0  0  0  0  0  0  0  0
  8  1  1  1  0  0  0 
  1 13  1  0  0  0  0 
  2 10  1  0  0  0  0 
  2 14  1  0  0  0  0 
 11  3  1  1  0  0  0 
 12  4  1  6  0  0  0 
  4 22  1  0  0  0  0 
  5 17  1  0  0  0  0 
  6 22  2  0  0  0  0 
  7  8  1  0  0  0  0 
  7  9  1  0  0  0  0 
  7 11  1  0  0  0  0 
  7 15  1  1  0  0  0 
  8 10  1  0  0  0  0 
  8 13  1  0  0  0  0 
  9 14  1  0  0  0  0 
  9 16  1  0  0  0  0 
  9 17  1  1  0  0  0 
 10 12  1  0  0  0  0 
 10 24  1  6  0  0  0 
 11 12  1  0  0  0  0 
 14 18  1  0  0  0  0 
 14 25  1  1  0  0  0 
 16 19  1  0  0  0  0 
 18 20  2  0  0  0  0 
 19 20  1  0  0  0  0 
 20 21  1  0  0  0  0 
 22 23  1  0  0  0  0 
M  END
> <ID>
CHEBI:175141

> <NAME>
3-Acetoxyscirpene-4,15-diol

$$$$
4025704
  CDK     0602212312

 23 26  0  0  0  0  0  0  0  0999 V2000
    6.4004   -0.9401    0.0000 O   0  0  0  0  0  0  0  0  0  0  0  0
    3.3267    0.1316    0.0000 O   0  0  0  0  0  0  0  0  0  0  0  0
    3.1926    1.2552    0.0000 O   0  0  0  0  0  0  0  0  0  0  0  0
    4.8487    2.2114    0.0000 O   0  0  0  0  0  0  0  0  0  0  0  0
    4.3665   -2.3059    0.0000 O   0  0  0  0  0  0  0  0  0  0  0  0
    3.5477    2.5805    0.0000 O   0  0  0  0  0  0  0  0  0  0  0  0
    4.7323   -0.3870    0.0000 C   0  0  0  0  0  0  0  0  0  0  0  0
    5.8403   -0.3800    0.0000 C   0  0  0  0  0  0  0  0  0  0  0  0
    3.7650   -1.0727    0.0000 C   0  0  0  0  0  0  0  0  0  0  0  0
    4.9373    0.3781    0.0000 C   0  0  0  0  0  0  0  0  0  0  0  0
    3.9578    1.0502    0.0000 C   0  0  0  0  0  0  0  0  0  0  0  0
    6.6054   -0.1751    0.0000 C   0  0  0  0  0  0  0  0  0  0  0  0
    4.6437    1.4463    0.0000 C   0  0  0  0  0  0  0  0  0  0  0  0
    3.1084   -0.6298    0.0000 C   0  0  0  0  0  0  0  0  0  0  0  0
    4.9373   -1.1522    0.0000 C   0  0  0  0  0  0  0  0  0  0  0  0
    3.7202   -1.8966    0.0000 C   0  0  0  0  0  0  0  0  0  0  0  0
    4.4218   -1.5157    0.0000 C   0  0  0  0  0  0  0  0  0  0  0  0
    2.3614   -0.9800    0.0000 C   0  0  0  0  0  0  0  0  0  0  0  0
    2.9814   -2.2640    0.0000 C   0  0  0  0  0  0  0  0  0  0  0  0
    2.2975   -1.8026    0.0000 C   0  0  0  0  0  0  0  0  0  0  0  0
    2.9876    2.0204    0.0000 C   0  0  0  0  0  0  0  0  0  0  0  0
    1.5842   -2.1471    0.0000 C   0  0  0  0  0  0  0  0  0  0  0  0
    2.2225    2.2254    0.0000 C   0  0  0  0  0  0  0  0  0  0  0  0
  1  8  1  0  0  0  0 
  1 12  1  0  0  0  0 
  2 10  1  0  0  0  0 
  2 14  1  0  0  0  0 
  3 11  1  0  0  0  0 
  3 21  1  0  0  0  0 
  4 13  1  0  0  0  0 
  5 17  1  0  0  0  0 
  6 21  2  0  0  0  0 
  7  8  1  0  0  0  0 
  7  9  1  0  0  0  0 
  7 11  1  0  0  0  0 
  7 15  1  0  0  0  0 
  8 10  1  0  0  0  0 
  8 12  1  0  0  0  0 
  9 14  1  0  0  0  0 
  9 16  1  0  0  0  0 
  9 17  1  0  0  0  0 
 10 13  1  0  0  0  0 
 11 13  1  0  0  0  0 
 14 18  1  0  0  0  0 
 16 19  1  0  0  0  0 
 18 20  2  0  0  0  0 
 19 20  1  0  0  0  0 
 20 22  1  0  0  0  0 
 21 23  1  0  0  0  0 
M  END
> <ID>
CHEBI:175143

> <NAME>
4-Acetoxyscirpene-3,15-diol

$$$$
429922
  CDK     0602212312

 23 26  0  0  0  0  0  0  0  0999 V2000
    6.4005   -0.3400    0.0000 O   0  0  0  0  0  0  0  0  0  0  0  0
    3.3267    0.7318    0.0000 O   0  0  0  0  0  0  0  0  0  0  0  0
    3.1926    1.8555    0.0000 O   0  0  0  0  0  0  0  0  0  0  0  0
    4.8487    2.8116    0.0000 O   0  0  0  0  0  0  0  0  0  0  0  0
    4.3665   -1.7056    0.0000 O   0  0  0  0  0  0  0  0  0  0  0  0
    5.7351   -1.8013    0.0000 O   0  0  0  0  0  0  0  0  0  0  0  0
    4.7323    0.2132    0.0000 C   0  0  0  0  0  0  0  0  0  0  0  0
    5.8404    0.2201    0.0000 C   0  0  0  0  0  0  0  0  0  0  0  0
    3.7651   -0.4726    0.0000 C   0  0  0  0  0  0  0  0  0  0  0  0
    4.9373    0.9782    0.0000 C   0  0  0  0  0  0  0  0  0  0  0  0
    3.9578    1.6505    0.0000 C   0  0  0  0  0  0  0  0  0  0  0  0
    6.6055    0.4251    0.0000 C   0  0  0  0  0  0  0  0  0  0  0  0
    4.6437    2.0465    0.0000 C   0  0  0  0  0  0  0  0  0  0  0  0
    3.1084   -0.0296    0.0000 C   0  0  0  0  0  0  0  0  0  0  0  0
    4.9373   -0.5519    0.0000 C   0  0  0  0  0  0  0  0  0  0  0  0
    3.7202   -1.2963    0.0000 C   0  0  0  0  0  0  0  0  0  0  0  0
    4.4218   -0.9155    0.0000 C   0  0  0  0  0  0  0  0  0  0  0  0
    2.3614   -0.3798    0.0000 C   0  0  0  0  0  0  0  0  0  0  0  0
    2.9815   -1.6638    0.0000 C   0  0  0  0  0  0  0  0  0  0  0  0
    2.2975   -1.2024    0.0000 C   0  0  0  0  0  0  0  0  0  0  0  0
    1.5842   -1.5469    0.0000 C   0  0  0  0  0  0  0  0  0  0  0  0
    5.0232   -2.1486    0.0000 C   0  0  0  0  0  0  0  0  0  0  0  0
    4.9680   -2.9388    0.0000 C   0  0  0  0  0  0  0  0  0  0  0  0
  1  8  1  0  0  0  0 
  1 12  1  0  0  0  0 
  2 10  1  0  0  0  0 
  2 14  1  0  0  0  0 
  3 11  1  0  0  0  0 
  4 13  1  0  0  0  0 
  5 17  1  0  0  0  0 
  5 22  1  0  0  0  0 
  6 22  2  0  0  0  0 
  7  8  1  0  0  0  0 
  7  9  1  0  0  0  0 
  7 11  1  0  0  0  0 
  7 15  1  0  0  0  0 
  8 10  1  0  0  0  0 
  8 12  1  0  0  0  0 
  9 14  1  0  0  0  0 
  9 16  1  0  0  0  0 
  9 17  1  0  0  0  0 
 10 13  1  0  0  0  0 
 11 13  1  0  0  0  0 
 14 18  1  0  0  0  0 
 16 19  1  0  0  0  0 
 18 20  2  0  0  0  0 
 19 20  1  0  0  0  0 
 20 21  1  0  0  0  0 
 22 23  1  0  0  0  0 
M  END
> <ID>
CHEBI:175144

> <NAME>
Monoacetoxyscirpenol

$$$$
104759
  CDK     0602212312

 24 27  0  0  0  0  0  0  0  0999 V2000
    6.4004   -1.1813    0.0000 O   0  0  0  0  0  0  0  0  0  0  0  0
    3.3267   -0.1095    0.0000 O   0  0  0  0  0  0  0  0  0  0  0  0
    4.8487    1.9702    0.0000 O   0  0  0  0  0  0  0  0  0  0  0  0
    4.3819   -2.5730    0.0000 O   0  0  0  0  0  0  0  0  0  0  0  0
    5.0184   -1.8719    0.0000 O   0  0  0  0  0  0  0  0  0  0  0  0
    2.9292   -3.2955    0.0000 O   0  0  0  0  0  0  0  0  0  0  0  0
    3.5235    2.3253    0.0000 O   0  0  0  0  0  0  0  0  0  0  0  0
    4.7323   -0.6282    0.0000 C   0  0  0  0  0  0  0  0  0  0  0  0
    5.8403   -0.6212    0.0000 C   0  0  0  0  0  0  0  0  0  0  0  0
    3.7650   -1.3138    0.0000 C   0  0  0  0  0  0  0  0  0  0  0  0
    4.9373    0.1370    0.0000 C   0  0  0  0  0  0  0  0  0  0  0  0
    3.9578    0.8091    0.0000 C   0  0  0  0  0  0  0  0  0  0  0  0
    6.6054   -0.4162    0.0000 C   0  0  0  0  0  0  0  0  0  0  0  0
    4.6437    1.2052    0.0000 C   0  0  0  0  0  0  0  0  0  0  0  0
    3.1084   -0.8709    0.0000 C   0  0  0  0  0  0  0  0  0  0  0  0
    4.5272   -1.3933    0.0000 C   0  0  0  0  0  0  0  0  0  0  0  0
    3.7202   -2.1377    0.0000 C   0  0  0  0  0  0  0  0  0  0  0  0
    4.2306   -1.9546    0.0000 C   0  0  0  0  0  0  0  0  0  0  0  0
    2.3614   -1.2212    0.0000 C   0  0  0  0  0  0  0  0  0  0  0  0
    2.9814   -2.5051    0.0000 C   0  0  0  0  0  0  0  0  0  0  0  0
    2.2975   -2.0438    0.0000 C   0  0  0  0  0  0  0  0  0  0  0  0
    4.2886    2.5303    0.0000 C   0  0  0  0  0  0  0  0  0  0  0  0
    1.5842   -2.3882    0.0000 C   0  0  0  0  0  0  0  0  0  0  0  0
    4.4936    3.2955    0.0000 C   0  0  0  0  0  0  0  0  0  0  0  0
  1  9  1  0  0  0  0 
  1 13  1  0  0  0  0 
  2 11  1  0  0  0  0 
  2 15  1  0  0  0  0 
  3 14  1  0  0  0  0 
  3 22  1  0  0  0  0 
  4 17  1  0  0  0  0 
  5 18  1  0  0  0  0 
  6 20  2  0  0  0  0 
  7 22  2  0  0  0  0 
  8  9  1  0  0  0  0 
  8 10  1  0  0  0  0 
  8 12  1  0  0  0  0 
  8 16  1  0  0  0  0 
  9 11  1  0  0  0  0 
  9 13  1  0  0  0  0 
 10 15  1  0  0  0  0 
 10 17  1  0  0  0  0 
 10 18  1  0  0  0  0 
 11 14  1  0  0  0  0 
 12 14  1  0  0  0  0 
 15 19  1  0  0  0  0 
 17 20  1  0  0  0  0 
 19 21  2  0  0  0  0 
 20 21  1  0  0  0  0 
 21 23  1  0  0  0  0 
 22 24  1  0  0  0  0 
M  END
> <ID>
CHEBI:175302

> <NAME>
Acetyldeoxynivalenol

$$$$
91809166
  CDK     0602212312

 34 37  0  0  0  0  0  0  0  0999 V2000
    1.2573    0.0907    0.0000 O   0  0  0  0  0  0  0  0  0  0  0  0
    4.4586    1.2070    0.0000 O   0  0  0  0  0  0  0  0  0  0  0  0
    4.5982    2.3773    0.0000 O   0  0  0  0  0  0  0  0  0  0  0  0
    2.8734    3.3732    0.0000 O   0  0  0  0  0  0  0  0  0  0  0  0
    3.3756   -1.3316    0.0000 O   0  0  0  0  0  0  0  0  0  0  0  0
    4.8725   -2.1112    0.0000 O   0  0  0  0  0  0  0  0  0  0  0  0
    4.2284    3.7575    0.0000 O   0  0  0  0  0  0  0  0  0  0  0  0
    1.9502   -1.4312    0.0000 O   0  0  0  0  0  0  0  0  0  0  0  0
    6.2983   -2.0170    0.0000 O   0  0  0  0  0  0  0  0  0  0  0  0
    2.9947    0.6668    0.0000 C   0  0  1  0  0  0  0  0  0  0  0  0
    1.8406    0.6741    0.0000 C   0  0  2  0  0  0  0  0  0  0  0  0
    4.0020   -0.0473    0.0000 C   0  0  2  0  0  0  0  0  0  0  0  0
    2.7812    1.4637    0.0000 C   0  0  1  0  0  0  0  0  0  0  0  0
    3.8013    2.1638    0.0000 C   0  0  1  0  0  0  0  0  0  0  0  0
    1.0438    0.8877    0.0000 C   0  0  0  0  0  0  0  0  0  0  0  0
    3.0869    2.5763    0.0000 C   0  0  1  0  0  0  0  0  0  0  0  0
    4.6859    0.4140    0.0000 C   0  0  1  0  0  0  0  0  0  0  0  0
    2.7812   -0.1300    0.0000 C   0  0  0  0  0  0  0  0  0  0  0  0
    4.0487   -0.9053    0.0000 C   0  0  0  0  0  0  0  0  0  0  0  0
    3.3180   -0.5086    0.0000 C   0  0  0  0  0  0  0  0  0  0  0  0
    4.8182   -1.2880    0.0000 C   0  0  1  0  0  0  0  0  0  0  0  0
    5.4640    0.0493    0.0000 C   0  0  0  0  0  0  0  0  0  0  0  0
    5.5305   -0.8075    0.0000 C   0  0  0  0  0  0  0  0  0  0  0  0
    4.8117    3.1742    0.0000 C   0  0  0  0  0  0  0  0  0  0  0  0
    6.2734   -1.1663    0.0000 C   0  0  0  0  0  0  0  0  0  0  0  0
    2.6917   -1.7929    0.0000 C   0  0  0  0  0  0  0  0  0  0  0  0
    5.6086    3.3877    0.0000 C   0  0  0  0  0  0  0  0  0  0  0  0
    5.6126   -2.4757    0.0000 C   0  0  0  0  0  0  0  0  0  0  0  0
    2.7492   -2.6159    0.0000 C   0  0  0  0  0  0  0  0  0  0  0  0
    5.6670   -3.2988    0.0000 C   0  0  0  0  0  0  0  0  0  0  0  0
    6.4071   -3.6634    0.0000 C   0  0  0  0  0  0  0  0  0  0  0  0
    4.9813   -3.7575    0.0000 C   0  0  0  0  0  0  0  0  0  0  0  0
    2.5997    2.1411    0.0000 H   0  0  0  0  0  0  0  0  0  0  0  0
    5.2673    0.8062    0.0000 H   0  0  0  0  0  0  0  0  0  0  0  0
 11  1  1  1  0  0  0 
  1 15  1  0  0  0  0 
  2 13  1  0  0  0  0 
  2 17  1  0  0  0  0 
 14  3  1  1  0  0  0 
  3 24  1  0  0  0  0 
 16  4  1  6  0  0  0 
  5 20  1  0  0  0  0 
  5 26  1  0  0  0  0 
 21  6  1  1  0  0  0 
  6 28  1  0  0  0  0 
  7 24  2  0  0  0  0 
  8 26  2  0  0  0  0 
  9 28  2  0  0  0  0 
 10 11  1  0  0  0  0 
 10 12  1  0  0  0  0 
 10 14  1  0  0  0  0 
 10 18  1  1  0  0  0 
 11 13  1  0  0  0  0 
 11 15  1  0  0  0  0 
 12 17  1  0  0  0  0 
 12 19  1  0  0  0  0 
 12 20  1  1  0  0  0 
 13 16  1  0  0  0  0 
 13 33  1  6  0  0  0 
 14 16  1  0  0  0  0 
 17 22  1  0  0  0  0 
 17 34  1  1  0  0  0 
 19 21  1  0  0  0  0 
 21 23  1  0  0  0  0 
 22 23  2  0  0  0  0 
 23 25  1  0  0  0  0 
 24 27  1  0  0  0  0 
 26 29  1  0  0  0  0 
 28 30  1  0  0  0  0 
 30 31  1  0  0  0  0 
 30 32  1  0  0  0  0 
M  END
> <ID>
CHEBI:175609

> <NAME>
8-Isobutanoylneosolaniol

$$$$
3081101
  CDK     0602212312

 35 38  0  0  0  0  0  0  0  0999 V2000
    1.7697    0.6375    0.0000 O   0  0  0  0  0  0  0  0  0  0  0  0
    4.9709    1.7538    0.0000 O   0  0  0  0  0  0  0  0  0  0  0  0
    5.1106    2.9240    0.0000 O   0  0  0  0  0  0  0  0  0  0  0  0
    3.3858    3.9199    0.0000 O   0  0  0  0  0  0  0  0  0  0  0  0
    3.8881   -0.7849    0.0000 O   0  0  0  0  0  0  0  0  0  0  0  0
    5.3849   -1.5644    0.0000 O   0  0  0  0  0  0  0  0  0  0  0  0
    4.7408    4.3043    0.0000 O   0  0  0  0  0  0  0  0  0  0  0  0
    2.4626   -0.8845    0.0000 O   0  0  0  0  0  0  0  0  0  0  0  0
    6.8107   -1.4703    0.0000 O   0  0  0  0  0  0  0  0  0  0  0  0
    3.5071    1.2136    0.0000 C   0  0  1  0  0  0  0  0  0  0  0  0
    2.3531    1.2209    0.0000 C   0  0  0  0  0  0  0  0  0  0  0  0
    4.5144    0.4994    0.0000 C   0  0  2  0  0  0  0  0  0  0  0  0
    3.2936    2.0105    0.0000 C   0  0  1  0  0  0  0  0  0  0  0  0
    4.3138    2.7105    0.0000 C   0  0  1  0  0  0  0  0  0  0  0  0
    1.5562    1.4344    0.0000 C   0  0  0  0  0  0  0  0  0  0  0  0
    3.5993    3.1230    0.0000 C   0  0  1  0  0  0  0  0  0  0  0  0
    5.1984    0.9608    0.0000 C   0  0  1  0  0  0  0  0  0  0  0  0
    3.2935    0.4168    0.0000 C   0  0  0  0  0  0  0  0  0  0  0  0
    4.5612   -0.3586    0.0000 C   0  0  0  0  0  0  0  0  0  0  0  0
    3.8305    0.0381    0.0000 C   0  0  0  0  0  0  0  0  0  0  0  0
    5.3305   -0.7412    0.0000 C   0  0  1  0  0  0  0  0  0  0  0  0
    5.9764    0.5960    0.0000 C   0  0  0  0  0  0  0  0  0  0  0  0
    6.0430   -0.2607    0.0000 C   0  0  0  0  0  0  0  0  0  0  0  0
    5.3242    3.7209    0.0000 C   0  0  0  0  0  0  0  0  0  0  0  0
    6.7859   -0.6195    0.0000 C   0  0  0  0  0  0  0  0  0  0  0  0
    3.2041   -1.2462    0.0000 C   0  0  0  0  0  0  0  0  0  0  0  0
    6.1210    3.9345    0.0000 C   0  0  0  0  0  0  0  0  0  0  0  0
    6.1251   -1.9289    0.0000 C   0  0  0  0  0  0  0  0  0  0  0  0
    3.2617   -2.0691    0.0000 C   0  0  0  0  0  0  0  0  0  0  0  0
    6.1794   -2.7521    0.0000 C   0  0  0  0  0  0  0  0  0  0  0  0
    6.9195   -3.1166    0.0000 C   0  0  0  0  0  0  0  0  0  0  0  0
    6.9739   -3.9397    0.0000 C   0  0  0  0  0  0  0  0  0  0  0  0
    7.7140   -4.3043    0.0000 C   0  0  0  0  0  0  0  0  0  0  0  0
    3.1121    2.6878    0.0000 H   0  0  0  0  0  0  0  0  0  0  0  0
    5.7797    1.3529    0.0000 H   0  0  0  0  0  0  0  0  0  0  0  0
  1 11  1  0  0  0  0 
  1 15  1  0  0  0  0 
  2 13  1  0  0  0  0 
  2 17  1  0  0  0  0 
 14  3  1  1  0  0  0 
  3 24  1  0  0  0  0 
 16  4  1  6  0  0  0 
  5 20  1  0  0  0  0 
  5 26  1  0  0  0  0 
 21  6  1  1  0  0  0 
  6 28  1  0  0  0  0 
  7 24  2  0  0  0  0 
  8 26  2  0  0  0  0 
  9 28  2  0  0  0  0 
 10 11  1  0  0  0  0 
 10 12  1  0  0  0  0 
 10 14  1  0  0  0  0 
 10 18  1  1  0  0  0 
 11 13  1  0  0  0  0 
 11 15  1  0  0  0  0 
 12 17  1  0  0  0  0 
 12 19  1  0  0  0  0 
 12 20  1  1  0  0  0 
 13 16  1  0  0  0  0 
 13 34  1  6  0  0  0 
 14 16  1  0  0  0  0 
 17 22  1  0  0  0  0 
 17 35  1  1  0  0  0 
 19 21  1  0  0  0  0 
 21 23  1  0  0  0  0 
 22 23  2  0  0  0  0 
 23 25  1  0  0  0  0 
 24 27  1  0  0  0  0 
 26 29  1  0  0  0  0 
 28 30  1  0  0  0  0 
 30 31  1  0  0  0  0 
 31 32  1  0  0  0  0 
 32 33  1  0  0  0  0 
M  END
> <ID>
CHEBI:175666

> <NAME>
8-Pentanoylneosolaniol

$$$$
91809638
  CDK     0602212312

 28 31  0  0  0  0  0  0  0  0999 V2000
    1.4732    0.4666    0.0000 O   0  0  0  0  0  0  0  0  0  0  0  0
    4.6743    1.5828    0.0000 O   0  0  0  0  0  0  0  0  0  0  0  0
    3.0893    3.7488    0.0000 O   0  0  0  0  0  0  0  0  0  0  0  0
    3.5914   -0.9557    0.0000 O   0  0  0  0  0  0  0  0  0  0  0  0
    5.0882   -1.7352    0.0000 O   0  0  0  0  0  0  0  0  0  0  0  0
    6.5139   -1.6410    0.0000 O   0  0  0  0  0  0  0  0  0  0  0  0
    3.2105    1.0426    0.0000 C   0  0  1  0  0  0  0  0  0  0  0  0
    2.0565    1.0499    0.0000 C   0  0  2  0  0  0  0  0  0  0  0  0
    4.2178    0.3285    0.0000 C   0  0  2  0  0  0  0  0  0  0  0  0
    2.9970    1.8394    0.0000 C   0  0  1  0  0  0  0  0  0  0  0  0
    4.0171    2.5395    0.0000 C   0  0  0  0  0  0  0  0  0  0  0  0
    1.2597    1.2635    0.0000 C   0  0  0  0  0  0  0  0  0  0  0  0
    3.3027    2.9520    0.0000 C   0  0  1  0  0  0  0  0  0  0  0  0
    4.9017    0.7898    0.0000 C   0  0  1  0  0  0  0  0  0  0  0  0
    4.2645   -0.5294    0.0000 C   0  0  0  0  0  0  0  0  0  0  0  0
    2.9969    0.2458    0.0000 C   0  0  0  0  0  0  0  0  0  0  0  0
    3.5339   -0.1327    0.0000 C   0  0  0  0  0  0  0  0  0  0  0  0
    5.0338   -0.9121    0.0000 C   0  0  1  0  0  0  0  0  0  0  0  0
    5.6797    0.4251    0.0000 C   0  0  0  0  0  0  0  0  0  0  0  0
    5.7463   -0.4316    0.0000 C   0  0  0  0  0  0  0  0  0  0  0  0
    6.4890   -0.7904    0.0000 C   0  0  0  0  0  0  0  0  0  0  0  0
    5.8283   -2.0997    0.0000 C   0  0  0  0  0  0  0  0  0  0  0  0
    5.8827   -2.9229    0.0000 C   0  0  0  0  0  0  0  0  0  0  0  0
    6.6227   -3.2873    0.0000 C   0  0  0  0  0  0  0  0  0  0  0  0
    6.6771   -4.1104    0.0000 C   0  0  0  0  0  0  0  0  0  0  0  0
    7.3083   -2.8287    0.0000 C   0  0  0  0  0  0  0  0  0  0  0  0
    2.8155    2.5168    0.0000 H   0  0  0  0  0  0  0  0  0  0  0  0
    5.4829    1.1820    0.0000 H   0  0  0  0  0  0  0  0  0  0  0  0
  8  1  1  1  0  0  0 
  1 12  1  0  0  0  0 
  2 10  1  0  0  0  0 
  2 14  1  0  0  0  0 
 13  3  1  6  0  0  0 
  4 17  1  0  0  0  0 
 18  5  1  1  0  0  0 
  5 22  1  0  0  0  0 
  6 22  2  0  0  0  0 
  7  8  1  0  0  0  0 
  7  9  1  0  0  0  0 
  7 11  1  0  0  0  0 
  7 16  1  1  0  0  0 
  8 10  1  0  0  0  0 
  8 12  1  0  0  0  0 
  9 14  1  0  0  0  0 
  9 15  1  0  0  0  0 
  9 17  1  1  0  0  0 
 10 13  1  0  0  0  0 
 10 27  1  6  0  0  0 
 11 13  1  0  0  0  0 
 14 19  1  0  0  0  0 
 14 28  1  1  0  0  0 
 15 18  1  0  0  0  0 
 18 20  1  0  0  0  0 
 19 20  2  0  0  0  0 
 20 21  1  0  0  0  0 
 22 23  1  0  0  0  0 
 23 24  1  0  0  0  0 
 24 25  1  0  0  0  0 
 24 26  1  0  0  0  0 
M  END
> <ID>
CHEBI:175711

> <NAME>
Sporotrichiol

$$$$
131751921
  CDK     0602212312

 34 37  0  0  0  0  0  0  0  0999 V2000
    7.4855    0.2417    0.0000 O   0  0  0  0  0  0  0  0  0  0  0  0
    4.2842    1.3580    0.0000 O   0  0  0  0  0  0  0  0  0  0  0  0
    4.1445    2.5283    0.0000 O   0  0  0  0  0  0  0  0  0  0  0  0
    5.8694    3.5241    0.0000 O   0  0  0  0  0  0  0  0  0  0  0  0
    5.3671   -1.1806    0.0000 O   0  0  0  0  0  0  0  0  0  0  0  0
    3.8702   -1.9602    0.0000 O   0  0  0  0  0  0  0  0  0  0  0  0
    4.5143    3.9086    0.0000 O   0  0  0  0  0  0  0  0  0  0  0  0
    6.7925   -1.2803    0.0000 O   0  0  0  0  0  0  0  0  0  0  0  0
    2.4444   -1.8660    0.0000 O   0  0  0  0  0  0  0  0  0  0  0  0
    5.7480    0.8178    0.0000 C   0  0  0  0  0  0  0  0  0  0  0  0
    6.9021    0.8251    0.0000 C   0  0  0  0  0  0  0  0  0  0  0  0
    4.7407    0.1037    0.0000 C   0  0  0  0  0  0  0  0  0  0  0  0
    5.9615    1.6147    0.0000 C   0  0  0  0  0  0  0  0  0  0  0  0
    4.9413    2.3148    0.0000 C   0  0  0  0  0  0  0  0  0  0  0  0
    7.6990    1.0386    0.0000 C   0  0  0  0  0  0  0  0  0  0  0  0
    5.6559    2.7273    0.0000 C   0  0  0  0  0  0  0  0  0  0  0  0
    4.0568    0.5650    0.0000 C   0  0  0  0  0  0  0  0  0  0  0  0
    5.9616    0.0210    0.0000 C   0  0  0  0  0  0  0  0  0  0  0  0
    4.6940   -0.7544    0.0000 C   0  0  0  0  0  0  0  0  0  0  0  0
    5.4246   -0.3576    0.0000 C   0  0  0  0  0  0  0  0  0  0  0  0
    3.9246   -1.1370    0.0000 C   0  0  0  0  0  0  0  0  0  0  0  0
    3.2787    0.2002    0.0000 C   0  0  0  0  0  0  0  0  0  0  0  0
    3.2121   -0.6565    0.0000 C   0  0  0  0  0  0  0  0  0  0  0  0
    3.9310    3.3251    0.0000 C   0  0  0  0  0  0  0  0  0  0  0  0
    2.4693   -1.0153    0.0000 C   0  0  0  0  0  0  0  0  0  0  0  0
    6.0510   -1.6419    0.0000 C   0  0  0  0  0  0  0  0  0  0  0  0
    3.1342    3.5387    0.0000 C   0  0  0  0  0  0  0  0  0  0  0  0
    3.1301   -2.3247    0.0000 C   0  0  0  0  0  0  0  0  0  0  0  0
    5.9935   -2.4649    0.0000 C   0  0  0  0  0  0  0  0  0  0  0  0
    2.9206    4.3356    0.0000 C   0  0  0  0  0  0  0  0  0  0  0  0
    3.0757   -3.1479    0.0000 C   0  0  0  0  0  0  0  0  0  0  0  0
    2.3357   -3.5124    0.0000 C   0  0  0  0  0  0  0  0  0  0  0  0
    2.2813   -4.3356    0.0000 C   0  0  0  0  0  0  0  0  0  0  0  0
    1.6499   -3.0537    0.0000 C   0  0  0  0  0  0  0  0  0  0  0  0
  1 11  1  0  0  0  0 
  1 15  1  0  0  0  0 
  2 13  1  0  0  0  0 
  2 17  1  0  0  0  0 
  3 14  1  0  0  0  0 
  3 24  1  0  0  0  0 
  4 16  1  0  0  0  0 
  5 20  1  0  0  0  0 
  5 26  1  0  0  0  0 
  6 21  1  0  0  0  0 
  6 28  1  0  0  0  0 
  7 24  2  0  0  0  0 
  8 26  2  0  0  0  0 
  9 28  2  0  0  0  0 
 10 11  1  0  0  0  0 
 10 12  1  0  0  0  0 
 10 14  1  0  0  0  0 
 10 18  1  0  0  0  0 
 11 13  1  0  0  0  0 
 11 15  1  0  0  0  0 
 12 17  1  0  0  0  0 
 12 19  1  0  0  0  0 
 12 20  1  0  0  0  0 
 13 16  1  0  0  0  0 
 14 16  1  0  0  0  0 
 17 22  1  0  0  0  0 
 19 21  1  0  0  0  0 
 21 23  1  0  0  0  0 
 22 23  2  0  0  0  0 
 23 25  1  0  0  0  0 
 24 27  1  0  0  0  0 
 26 29  1  0  0  0  0 
 27 30  1  0  0  0  0 
 28 31  1  0  0  0  0 
 31 32  1  0  0  0  0 
 32 33  1  0  0  0  0 
 32 34  1  0  0  0  0 
M  END
> <ID>
CHEBI:175767

> <NAME>
4-Propanoyl-HT2 toxin

$$$$
3081149
  CDK     0602212312

 36 39  0  0  0  0  0  0  0  0999 V2000
    1.6425    1.0491    0.0000 O   0  0  0  0  0  0  0  0  0  0  0  0
    4.8438    2.1654    0.0000 O   0  0  0  0  0  0  0  0  0  0  0  0
    4.9834    3.3357    0.0000 O   0  0  0  0  0  0  0  0  0  0  0  0
    3.2586    4.3315    0.0000 O   0  0  0  0  0  0  0  0  0  0  0  0
    3.7608   -0.3732    0.0000 O   0  0  0  0  0  0  0  0  0  0  0  0
    5.2577   -1.1528    0.0000 O   0  0  0  0  0  0  0  0  0  0  0  0
    4.6136    4.7158    0.0000 O   0  0  0  0  0  0  0  0  0  0  0  0
    2.3355   -0.4730    0.0000 O   0  0  0  0  0  0  0  0  0  0  0  0
    6.6835   -1.0587    0.0000 O   0  0  0  0  0  0  0  0  0  0  0  0
    3.3800    1.6252    0.0000 C   0  0  1  0  0  0  0  0  0  0  0  0
    2.2258    1.6324    0.0000 C   0  0  0  0  0  0  0  0  0  0  0  0
    4.3872    0.9110    0.0000 C   0  0  2  0  0  0  0  0  0  0  0  0
    3.1664    2.4220    0.0000 C   0  0  1  0  0  0  0  0  0  0  0  0
    4.1866    3.1221    0.0000 C   0  0  1  0  0  0  0  0  0  0  0  0
    1.4290    1.8459    0.0000 C   0  0  0  0  0  0  0  0  0  0  0  0
    3.4721    3.5346    0.0000 C   0  0  1  0  0  0  0  0  0  0  0  0
    5.0711    1.3723    0.0000 C   0  0  1  0  0  0  0  0  0  0  0  0
    3.1664    0.8283    0.0000 C   0  0  0  0  0  0  0  0  0  0  0  0
    4.4339    0.0530    0.0000 C   0  0  0  0  0  0  0  0  0  0  0  0
    3.7033    0.4497    0.0000 C   0  0  0  0  0  0  0  0  0  0  0  0
    5.2034   -0.3297    0.0000 C   0  0  1  0  0  0  0  0  0  0  0  0
    5.8492    1.0076    0.0000 C   0  0  0  0  0  0  0  0  0  0  0  0
    5.9157    0.1509    0.0000 C   0  0  0  0  0  0  0  0  0  0  0  0
    5.1969    4.1325    0.0000 C   0  0  0  0  0  0  0  0  0  0  0  0
    6.6586   -0.2079    0.0000 C   0  0  0  0  0  0  0  0  0  0  0  0
    3.0770   -0.8345    0.0000 C   0  0  0  0  0  0  0  0  0  0  0  0
    5.9938    4.3460    0.0000 C   0  0  0  0  0  0  0  0  0  0  0  0
    5.9978   -1.5173    0.0000 C   0  0  0  0  0  0  0  0  0  0  0  0
    3.1345   -1.6575    0.0000 C   0  0  0  0  0  0  0  0  0  0  0  0
    6.0522   -2.3405    0.0000 C   0  0  0  0  0  0  0  0  0  0  0  0
    6.7923   -2.7050    0.0000 C   0  0  0  0  0  0  0  0  0  0  0  0
    6.8466   -3.5281    0.0000 C   0  0  0  0  0  0  0  0  0  0  0  0
    7.5867   -3.8927    0.0000 C   0  0  0  0  0  0  0  0  0  0  0  0
    7.6411   -4.7158    0.0000 C   0  0  0  0  0  0  0  0  0  0  0  0
    2.9849    3.0993    0.0000 H   0  0  0  0  0  0  0  0  0  0  0  0
    5.6525    1.7644    0.0000 H   0  0  0  0  0  0  0  0  0  0  0  0
  1 11  1  0  0  0  0 
  1 15  1  0  0  0  0 
  2 13  1  0  0  0  0 
  2 17  1  0  0  0  0 
 14  3  1  1  0  0  0 
  3 24  1  0  0  0  0 
 16  4  1  6  0  0  0 
  5 20  1  0  0  0  0 
  5 26  1  0  0  0  0 
 21  6  1  1  0  0  0 
  6 28  1  0  0  0  0 
  7 24  2  0  0  0  0 
  8 26  2  0  0  0  0 
  9 28  2  0  0  0  0 
 10 11  1  0  0  0  0 
 10 12  1  0  0  0  0 
 10 14  1  0  0  0  0 
 10 18  1  1  0  0  0 
 11 13  1  0  0  0  0 
 11 15  1  0  0  0  0 
 12 17  1  0  0  0  0 
 12 19  1  0  0  0  0 
 12 20  1  1  0  0  0 
 13 16  1  0  0  0  0 
 13 35  1  6  0  0  0 
 14 16  1  0  0  0  0 
 17 22  1  0  0  0  0 
 17 36  1  1  0  0  0 
 19 21  1  0  0  0  0 
 21 23  1  0  0  0  0 
 22 23  2  0  0  0  0 
 23 25  1  0  0  0  0 
 24 27  1  0  0  0  0 
 26 29  1  0  0  0  0 
 28 30  1  0  0  0  0 
 30 31  1  0  0  0  0 
 31 32  1  0  0  0  0 
 32 33  1  0  0  0  0 
 33 34  1  0  0  0  0 
M  END
> <ID>
CHEBI:175768

> <NAME>
8-Hexanoylneosolaniol

$$$$
13857021
  CDK     0602212313

 29 32  0  0  0  0  0  0  0  0999 V2000
    6.6659   -0.4800    0.0000 O   0  0  0  0  0  0  0  0  0  0  0  0
    3.4647    0.6362    0.0000 O   0  0  0  0  0  0  0  0  0  0  0  0
    3.3250    1.8065    0.0000 O   0  0  0  0  0  0  0  0  0  0  0  0
    5.0498    2.8023    0.0000 O   0  0  0  0  0  0  0  0  0  0  0  0
    4.5476   -1.9023    0.0000 O   0  0  0  0  0  0  0  0  0  0  0  0
    3.0507   -2.6819    0.0000 O   0  0  0  0  0  0  0  0  0  0  0  0
    3.6949    3.1866    0.0000 O   0  0  0  0  0  0  0  0  0  0  0  0
    5.9730   -2.0021    0.0000 O   0  0  0  0  0  0  0  0  0  0  0  0
    4.9286    0.0960    0.0000 C   0  0  2  0  0  0  0  0  0  0  0  0
    6.0826    0.1033    0.0000 C   0  0  1  0  0  0  0  0  0  0  0  0
    3.9212   -0.6181    0.0000 C   0  0  1  0  0  0  0  0  0  0  0  0
    5.1421    0.8928    0.0000 C   0  0  1  0  0  0  0  0  0  0  0  0
    4.1219    1.5929    0.0000 C   0  0  1  0  0  0  0  0  0  0  0  0
    6.8794    0.3168    0.0000 C   0  0  0  0  0  0  0  0  0  0  0  0
    4.8363    2.0054    0.0000 C   0  0  2  0  0  0  0  0  0  0  0  0
    3.2373   -0.1568    0.0000 C   0  0  1  0  0  0  0  0  0  0  0  0
    5.1421   -0.7008    0.0000 C   0  0  0  0  0  0  0  0  0  0  0  0
    3.8745   -1.4762    0.0000 C   0  0  0  0  0  0  0  0  0  0  0  0
    4.6052   -1.0794    0.0000 C   0  0  0  0  0  0  0  0  0  0  0  0
    2.4593   -0.5215    0.0000 C   0  0  0  0  0  0  0  0  0  0  0  0
    3.1051   -1.8588    0.0000 C   0  0  0  0  0  0  0  0  0  0  0  0
    2.3928   -1.3782    0.0000 C   0  0  0  0  0  0  0  0  0  0  0  0
    3.1115    2.6033    0.0000 C   0  0  0  0  0  0  0  0  0  0  0  0
    1.6499   -1.7370    0.0000 C   0  0  0  0  0  0  0  0  0  0  0  0
    5.2315   -2.3636    0.0000 C   0  0  0  0  0  0  0  0  0  0  0  0
    2.3147    2.8168    0.0000 C   0  0  0  0  0  0  0  0  0  0  0  0
    5.1740   -3.1866    0.0000 C   0  0  0  0  0  0  0  0  0  0  0  0
    5.3236    1.5701    0.0000 H   0  0  0  0  0  0  0  0  0  0  0  0
    2.6560    0.2353    0.0000 H   0  0  0  0  0  0  0  0  0  0  0  0
 10  1  1  1  0  0  0 
  1 14  1  0  0  0  0 
  2 12  1  0  0  0  0 
  2 16  1  0  0  0  0 
 13  3  1  6  0  0  0 
  3 23  1  0  0  0  0 
 15  4  1  6  0  0  0 
  5 19  1  0  0  0  0 
  5 25  1  0  0  0  0 
  6 21  2  0  0  0  0 
  7 23  2  0  0  0  0 
  8 25  2  0  0  0  0 
  9 10  1  0  0  0  0 
  9 11  1  0  0  0  0 
  9 13  1  0  0  0  0 
  9 17  1  1  0  0  0 
 10 12  1  0  0  0  0 
 10 14  1  0  0  0  0 
 11 16  1  0  0  0  0 
 11 18  1  0  0  0  0 
 11 19  1  1  0  0  0 
 12 15  1  0  0  0  0 
 12 28  1  1  0  0  0 
 13 15  1  0  0  0  0 
 16 20  1  0  0  0  0 
 16 29  1  6  0  0  0 
 18 21  1  0  0  0  0 
 20 22  2  0  0  0  0 
 21 22  1  0  0  0  0 
 22 24  1  0  0  0  0 
 23 26  1  0  0  0  0 
 25 27  1  0  0  0  0 
M  END
> <ID>
CHEBI:175875

> <NAME>
8-Oxodiacetoxyscirpenol

$$$$
10022771
  CDK     0602212313

 27 30  0  0  0  0  0  0  0  0999 V2000
    6.6906   -0.1386    0.0000 O   0  0  0  0  0  0  0  0  0  0  0  0
    3.4895    0.9776    0.0000 O   0  0  0  0  0  0  0  0  0  0  0  0
    3.3498    2.1479    0.0000 O   0  0  0  0  0  0  0  0  0  0  0  0
    5.0746    3.1436    0.0000 O   0  0  0  0  0  0  0  0  0  0  0  0
    4.5724   -1.5608    0.0000 O   0  0  0  0  0  0  0  0  0  0  0  0
    3.0756   -2.3404    0.0000 O   0  0  0  0  0  0  0  0  0  0  0  0
    3.7197    3.5280    0.0000 O   0  0  0  0  0  0  0  0  0  0  0  0
    1.6498   -2.2462    0.0000 O   0  0  0  0  0  0  0  0  0  0  0  0
    4.9533    0.4375    0.0000 C   0  0  0  0  0  0  0  0  0  0  0  0
    6.1072    0.4447    0.0000 C   0  0  0  0  0  0  0  0  0  0  0  0
    3.9460   -0.2766    0.0000 C   0  0  0  0  0  0  0  0  0  0  0  0
    5.1667    1.2343    0.0000 C   0  0  0  0  0  0  0  0  0  0  0  0
    4.1466    1.9344    0.0000 C   0  0  0  0  0  0  0  0  0  0  0  0
    6.9041    0.6583    0.0000 C   0  0  0  0  0  0  0  0  0  0  0  0
    4.8610    2.3468    0.0000 C   0  0  0  0  0  0  0  0  0  0  0  0
    3.2621    0.1847    0.0000 C   0  0  0  0  0  0  0  0  0  0  0  0
    5.1668   -0.3593    0.0000 C   0  0  0  0  0  0  0  0  0  0  0  0
    3.8993   -1.1346    0.0000 C   0  0  0  0  0  0  0  0  0  0  0  0
    4.6299   -0.7379    0.0000 C   0  0  0  0  0  0  0  0  0  0  0  0
    3.1299   -1.5172    0.0000 C   0  0  0  0  0  0  0  0  0  0  0  0
    2.4841   -0.1801    0.0000 C   0  0  0  0  0  0  0  0  0  0  0  0
    2.4175   -1.0368    0.0000 C   0  0  0  0  0  0  0  0  0  0  0  0
    3.1364    2.9446    0.0000 C   0  0  0  0  0  0  0  0  0  0  0  0
    1.6748   -1.3955    0.0000 C   0  0  0  0  0  0  0  0  0  0  0  0
    2.3395    3.1581    0.0000 C   0  0  0  0  0  0  0  0  0  0  0  0
    2.3355   -2.7048    0.0000 C   0  0  0  0  0  0  0  0  0  0  0  0
    2.2812   -3.5280    0.0000 C   0  0  0  0  0  0  0  0  0  0  0  0
  1 10  1  0  0  0  0 
  1 14  1  0  0  0  0 
  2 12  1  0  0  0  0 
  2 16  1  0  0  0  0 
  3 13  1  0  0  0  0 
  3 23  1  0  0  0  0 
  4 15  1  0  0  0  0 
  5 19  1  0  0  0  0 
  6 20  1  0  0  0  0 
  6 26  1  0  0  0  0 
  7 23  2  0  0  0  0 
  8 26  2  0  0  0  0 
  9 10  1  0  0  0  0 
  9 11  1  0  0  0  0 
  9 13  1  0  0  0  0 
  9 17  1  0  0  0  0 
 10 12  1  0  0  0  0 
 10 14  1  0  0  0  0 
 11 16  1  0  0  0  0 
 11 18  1  0  0  0  0 
 11 19  1  0  0  0  0 
 12 15  1  0  0  0  0 
 13 15  1  0  0  0  0 
 16 21  1  0  0  0  0 
 18 20  1  0  0  0  0 
 20 22  1  0  0  0  0 
 21 22  2  0  0  0  0 
 22 24  1  0  0  0  0 
 23 25  1  0  0  0  0 
 26 27  1  0  0  0  0 
M  END
> <ID>
CHEBI:175886

> <NAME>
4,8-Diacetyl-T2-tetrol

$$$$
3034801
  CDK     0813212310

 29 32  0  0  0  0  0  0  0  0999 V2000
    1.4485    0.5813    0.0000 O   0  0  0  0  0  0  0  0  0  0  0  0
    4.6497    1.6975    0.0000 O   0  0  0  0  0  0  0  0  0  0  0  0
    4.7894    2.8678    0.0000 O   0  0  0  0  0  0  0  0  0  0  0  0
    3.0645    3.8636    0.0000 O   0  0  0  0  0  0  0  0  0  0  0  0
    3.5668   -0.8410    0.0000 O   0  0  0  0  0  0  0  0  0  0  0  0
    5.0637   -1.6206    0.0000 O   0  0  0  0  0  0  0  0  0  0  0  0
    6.4894   -1.5265    0.0000 O   0  0  0  0  0  0  0  0  0  0  0  0
    3.1858    1.1573    0.0000 C   0  0  1  0  0  0  0  0  0  0  0  0
    2.0318    1.1646    0.0000 C   0  0  0  0  0  0  0  0  0  0  0  0
    4.1932    0.4432    0.0000 C   0  0  2  0  0  0  0  0  0  0  0  0
    2.9723    1.9542    0.0000 C   0  0  1  0  0  0  0  0  0  0  0  0
    3.9924    2.6542    0.0000 C   0  0  1  0  0  0  0  0  0  0  0  0
    1.2350    1.3781    0.0000 C   0  0  0  0  0  0  0  0  0  0  0  0
    3.2780    3.0667    0.0000 C   0  0  1  0  0  0  0  0  0  0  0  0
    4.8770    0.9045    0.0000 C   0  0  1  0  0  0  0  0  0  0  0  0
    2.9723    0.3605    0.0000 C   0  0  0  0  0  0  0  0  0  0  0  0
    4.2399   -0.4149    0.0000 C   0  0  0  0  0  0  0  0  0  0  0  0
    3.5092   -0.0181    0.0000 C   0  0  0  0  0  0  0  0  0  0  0  0
    5.0093   -0.7975    0.0000 C   0  0  1  0  0  0  0  0  0  0  0  0
    5.6551    0.5398    0.0000 C   0  0  0  0  0  0  0  0  0  0  0  0
    5.7216   -0.3169    0.0000 C   0  0  0  0  0  0  0  0  0  0  0  0
    6.4645   -0.6757    0.0000 C   0  0  0  0  0  0  0  0  0  0  0  0
    5.8037   -1.9852    0.0000 C   0  0  0  0  0  0  0  0  0  0  0  0
    5.8581   -2.8083    0.0000 C   0  0  0  0  0  0  0  0  0  0  0  0
    6.5981   -3.1728    0.0000 C   0  0  0  0  0  0  0  0  0  0  0  0
    6.6525   -3.9959    0.0000 C   0  0  0  0  0  0  0  0  0  0  0  0
    7.2838   -2.7141    0.0000 C   0  0  0  0  0  0  0  0  0  0  0  0
    2.7908    2.6314    0.0000 H   0  0  0  0  0  0  0  0  0  0  0  0
    5.4584    1.2966    0.0000 H   0  0  0  0  0  0  0  0  0  0  0  0
  1  9  1  0  0  0  0 
  1 13  1  0  0  0  0 
  2 11  1  0  0  0  0 
  2 15  1  0  0  0  0 
 12  3  1  1  0  0  0 
 14  4  1  6  0  0  0 
  5 18  1  0  0  0  0 
 19  6  1  1  0  0  0 
  6 23  1  0  0  0  0 
  7 23  2  0  0  0  0 
  8  9  1  0  0  0  0 
  8 10  1  0  0  0  0 
  8 12  1  0  0  0  0 
  8 16  1  1  0  0  0 
  9 11  1  0  0  0  0 
  9 13  1  0  0  0  0 
 10 15  1  0  0  0  0 
 10 17  1  0  0  0  0 
 10 18  1  1  0  0  0 
 11 14  1  0  0  0  0 
 11 28  1  6  0  0  0 
 12 14  1  0  0  0  0 
 15 20  1  0  0  0  0 
 15 29  1  1  0  0  0 
 17 19  1  0  0  0  0 
 19 21  1  0  0  0  0 
 20 21  2  0  0  0  0 
 21 22  1  0  0  0  0 
 23 24  1  0  0  0  0 
 24 25  1  0  0  0  0 
 25 26  1  0  0  0  0 
 25 27  1  0  0  0  0 
M  END
> <ID>
CHEBI:177646

> <NAME>
3,4,15-Trihydroxy-12,13-epoxytrichothec-9-en-8-yl 3-methylbutanoate

$$$$
156396
  CDK     0813212310

 26 29  0  0  0  0  0  0  0  0999 V2000
    1.4091   -0.5947    0.0000 O   0  0  0  0  0  0  0  0  0  0  0  0
    4.4827    0.4771    0.0000 O   0  0  0  0  0  0  0  0  0  0  0  0
    4.6168    1.6006    0.0000 O   0  0  0  0  0  0  0  0  0  0  0  0
    2.9608    2.5567    0.0000 O   0  0  0  0  0  0  0  0  0  0  0  0
    3.4430   -1.9603    0.0000 O   0  0  0  0  0  0  0  0  0  0  0  0
    4.8801   -2.7087    0.0000 O   0  0  0  0  0  0  0  0  0  0  0  0
    4.2617    2.9257    0.0000 O   0  0  0  0  0  0  0  0  0  0  0  0
    3.0773   -0.0416    0.0000 C   0  0  1  0  0  0  0  0  0  0  0  0
    1.9692   -0.0346    0.0000 C   0  0  0  0  0  0  0  0  0  0  0  0
    4.0444   -0.7273    0.0000 C   0  0  2  0  0  0  0  0  0  0  0  0
    2.8723    0.7235    0.0000 C   0  0  1  0  0  0  0  0  0  0  0  0
    3.8517    1.3956    0.0000 C   0  0  1  0  0  0  0  0  0  0  0  0
    1.2042    0.1704    0.0000 C   0  0  0  0  0  0  0  0  0  0  0  0
    3.1658    1.7916    0.0000 C   0  0  1  0  0  0  0  0  0  0  0  0
    4.7010   -0.2843    0.0000 C   0  0  1  0  0  0  0  0  0  0  0  0
    2.8722   -0.8066    0.0000 C   0  0  0  0  0  0  0  0  0  0  0  0
    4.0892   -1.5511    0.0000 C   0  0  0  0  0  0  0  0  0  0  0  0
    3.3877   -1.1702    0.0000 C   0  0  0  0  0  0  0  0  0  0  0  0
    4.8279   -1.9184    0.0000 C   0  0  1  0  0  0  0  0  0  0  0  0
    5.4480   -0.6345    0.0000 C   0  0  0  0  0  0  0  0  0  0  0  0
    5.5119   -1.4571    0.0000 C   0  0  0  0  0  0  0  0  0  0  0  0
    4.8217    2.3657    0.0000 C   0  0  0  0  0  0  0  0  0  0  0  0
    6.2251   -1.8016    0.0000 C   0  0  0  0  0  0  0  0  0  0  0  0
    5.5868    2.5707    0.0000 C   0  0  0  0  0  0  0  0  0  0  0  0
    2.6980    1.3737    0.0000 H   0  0  0  0  0  0  0  0  0  0  0  0
    5.2591    0.0921    0.0000 H   0  0  0  0  0  0  0  0  0  0  0  0
  1  9  1  0  0  0  0 
  1 13  1  0  0  0  0 
  2 11  1  0  0  0  0 
  2 15  1  0  0  0  0 
 12  3  1  1  0  0  0 
  3 22  1  0  0  0  0 
 14  4  1  6  0  0  0 
  5 18  1  0  0  0  0 
 19  6  1  1  0  0  0 
  7 22  2  0  0  0  0 
  8  9  1  0  0  0  0 
  8 10  1  0  0  0  0 
  8 12  1  0  0  0  0 
  8 16  1  1  0  0  0 
  9 11  1  0  0  0  0 
  9 13  1  0  0  0  0 
 10 15  1  0  0  0  0 
 10 17  1  0  0  0  0 
 10 18  1  1  0  0  0 
 11 14  1  0  0  0  0 
 11 25  1  6  0  0  0 
 12 14  1  0  0  0  0 
 15 20  1  0  0  0  0 
 15 26  1  1  0  0  0 
 17 19  1  0  0  0  0 
 19 21  1  0  0  0  0 
 20 21  2  0  0  0  0 
 21 23  1  0  0  0  0 
 22 24  1  0  0  0  0 
M  END
> <ID>
CHEBI:177657

> <NAME>
3,8,15-Trihydroxy-12,13-epoxytrichothec-9-en-4-yl acetate

$$$$
183169
  CDK     1011211437

 33 36  0  0  0  0  0  0  0  0999 V2000
    1.5985    0.0529    0.0000 O   0  0  0  0  0  0  0  0  0  0  0  0
    5.4790    1.4060    0.0000 O   0  0  0  0  0  0  0  0  0  0  0  0
    5.6483    2.8246    0.0000 O   0  0  0  0  0  0  0  0  0  0  0  0
    3.5575    4.0317    0.0000 O   0  0  0  0  0  0  0  0  0  0  0  0
    4.1663   -1.6712    0.0000 O   0  0  0  0  0  0  0  0  0  0  0  0
    5.9808   -2.6162    0.0000 O   0  0  0  0  0  0  0  0  0  0  0  0
    5.2000    4.4976    0.0000 O   0  0  0  0  0  0  0  0  0  0  0  0
    2.4385   -1.7920    0.0000 O   0  0  0  0  0  0  0  0  0  0  0  0
    7.7091   -2.5020    0.0000 O   0  0  0  0  0  0  0  0  0  0  0  0
    3.7046    0.7512    0.0000 C   0  0  1  0  0  0  0  0  0  0  0  0
    2.3056    0.7601    0.0000 C   0  0  2  0  0  0  0  0  0  0  0  0
    4.9256   -0.1144    0.0000 C   0  0  2  0  0  0  0  0  0  0  0  0
    3.4457    1.7172    0.0000 C   0  0  1  0  0  0  0  0  0  0  0  0
    4.6824    2.5658    0.0000 C   0  0  1  0  0  0  0  0  0  0  0  0
    1.3397    1.0189    0.0000 C   0  0  0  0  0  0  0  0  0  0  0  0
    3.8163    3.0658    0.0000 C   0  0  1  0  0  0  0  0  0  0  0  0
    5.7546    0.4448    0.0000 C   0  0  1  0  0  0  0  0  0  0  0  0
    3.4457   -0.2147    0.0000 C   0  0  0  0  0  0  0  0  0  0  0  0
    4.9822   -1.1545    0.0000 C   0  0  0  0  0  0  0  0  0  0  0  0
    4.0966   -0.6736    0.0000 C   0  0  0  0  0  0  0  0  0  0  0  0
    5.9149   -1.6183    0.0000 C   0  0  1  0  0  0  0  0  0  0  0  0
    6.6978    0.0026    0.0000 C   0  0  0  0  0  0  0  0  0  0  0  0
    6.7784   -1.0359    0.0000 C   0  0  0  0  0  0  0  0  0  0  0  0
    5.9071    3.7906    0.0000 C   0  0  0  0  0  0  0  0  0  0  0  0
    7.6789   -1.4708    0.0000 C   0  0  0  0  0  0  0  0  0  0  0  0
    3.3373   -2.2304    0.0000 C   0  0  0  0  0  0  0  0  0  0  0  0
    6.8730    4.0494    0.0000 C   0  0  0  0  0  0  0  0  0  0  0  0
    6.8779   -3.0580    0.0000 C   0  0  0  0  0  0  0  0  0  0  0  0
    3.4070   -3.2279    0.0000 C   0  0  0  0  0  0  0  0  0  0  0  0
    6.9438   -4.0558    0.0000 C   0  0  0  0  0  0  0  0  0  0  0  0
    7.8409   -4.4976    0.0000 C   0  0  0  0  0  0  0  0  0  0  0  0
    3.2258    2.5382    0.0000 H   0  0  0  0  0  0  0  0  0  0  0  0
    6.4593    0.9201    0.0000 H   0  0  0  0  0  0  0  0  0  0  0  0
 11  1  1  1  0  0  0 
  1 15  1  0  0  0  0 
  2 13  1  0  0  0  0 
  2 17  1  0  0  0  0 
 14  3  1  1  0  0  0 
  3 24  1  0  0  0  0 
 16  4  1  6  0  0  0 
  5 20  1  0  0  0  0 
  5 26  1  0  0  0  0 
 21  6  1  1  0  0  0 
  6 28  1  0  0  0  0 
  7 24  2  0  0  0  0 
  8 26  2  0  0  0  0 
  9 28  2  0  0  0  0 
 10 11  1  0  0  0  0 
 10 12  1  0  0  0  0 
 10 14  1  0  0  0  0 
 10 18  1  1  0  0  0 
 11 13  1  0  0  0  0 
 11 15  1  0  0  0  0 
 12 17  1  0  0  0  0 
 12 19  1  0  0  0  0 
 12 20  1  1  0  0  0 
 13 16  1  0  0  0  0 
 13 32  1  6  0  0  0 
 14 16  1  0  0  0  0 
 17 22  1  0  0  0  0 
 17 33  1  1  0  0  0 
 19 21  1  0  0  0  0 
 21 23  1  0  0  0  0 
 22 23  2  0  0  0  0 
 23 25  1  0  0  0  0 
 24 27  1  0  0  0  0 
 26 29  1  0  0  0  0 
 28 30  1  0  0  0  0 
 30 31  1  0  0  0  0 
M  END
> <ID>
CHEBI:180728

> <NAME>
8-Propanoylneosolaniol

$$$$
422111
  CDK     1019211303

 26 29  0  0  0  0  0  0  0  0999 V2000
    6.6657   -0.4800    0.0000 O   0  0  0  0  0  0  0  0  0  0  0  0
    3.4646    0.6362    0.0000 O   0  0  0  0  0  0  0  0  0  0  0  0
    3.3249    1.8064    0.0000 O   0  0  0  0  0  0  0  0  0  0  0  0
    5.0497    2.8022    0.0000 O   0  0  0  0  0  0  0  0  0  0  0  0
    4.5475   -1.9023    0.0000 O   0  0  0  0  0  0  0  0  0  0  0  0
    3.6948    3.1865    0.0000 O   0  0  0  0  0  0  0  0  0  0  0  0
    5.9728   -2.0020    0.0000 O   0  0  0  0  0  0  0  0  0  0  0  0
    4.9284    0.0960    0.0000 C   0  0  0  0  0  0  0  0  0  0  0  0
    6.0824    0.1033    0.0000 C   0  0  0  0  0  0  0  0  0  0  0  0
    3.9211   -0.6181    0.0000 C   0  0  0  0  0  0  0  0  0  0  0  0
    5.1419    0.8928    0.0000 C   0  0  0  0  0  0  0  0  0  0  0  0
    4.1218    1.5928    0.0000 C   0  0  0  0  0  0  0  0  0  0  0  0
    6.8792    0.3168    0.0000 C   0  0  0  0  0  0  0  0  0  0  0  0
    4.8362    2.0053    0.0000 C   0  0  0  0  0  0  0  0  0  0  0  0
    3.2372   -0.1568    0.0000 C   0  0  0  0  0  0  0  0  0  0  0  0
    5.1419   -0.7008    0.0000 C   0  0  0  0  0  0  0  0  0  0  0  0
    3.8744   -1.4761    0.0000 C   0  0  0  0  0  0  0  0  0  0  0  0
    4.6051   -1.0794    0.0000 C   0  0  0  0  0  0  0  0  0  0  0  0
    2.4593   -0.5215    0.0000 C   0  0  0  0  0  0  0  0  0  0  0  0
    3.1050   -1.8587    0.0000 C   0  0  0  0  0  0  0  0  0  0  0  0
    2.3927   -1.3782    0.0000 C   0  0  0  0  0  0  0  0  0  0  0  0
    3.1114    2.6032    0.0000 C   0  0  0  0  0  0  0  0  0  0  0  0
    1.6498   -1.7370    0.0000 C   0  0  0  0  0  0  0  0  0  0  0  0
    5.2313   -2.3636    0.0000 C   0  0  0  0  0  0  0  0  0  0  0  0
    2.3147    2.8167    0.0000 C   0  0  0  0  0  0  0  0  0  0  0  0
    5.1738   -3.1865    0.0000 C   0  0  0  0  0  0  0  0  0  0  0  0
  1  9  1  0  0  0  0 
  1 13  1  0  0  0  0 
  2 11  1  0  0  0  0 
  2 15  1  0  0  0  0 
  3 12  1  0  0  0  0 
  3 22  1  0  0  0  0 
  4 14  1  0  0  0  0 
  5 18  1  0  0  0  0 
  5 24  1  0  0  0  0 
  6 22  2  0  0  0  0 
  7 24  2  0  0  0  0 
  8  9  1  0  0  0  0 
  8 10  1  0  0  0  0 
  8 12  1  0  0  0  0 
  8 16  1  0  0  0  0 
  9 11  1  0  0  0  0 
  9 13  1  0  0  0  0 
 10 15  1  0  0  0  0 
 10 17  1  0  0  0  0 
 10 18  1  0  0  0  0 
 11 14  1  0  0  0  0 
 12 14  1  0  0  0  0 
 15 19  1  0  0  0  0 
 17 20  1  0  0  0  0 
 19 21  2  0  0  0  0 
 20 21  1  0  0  0  0 
 21 23  1  0  0  0  0 
 22 25  1  0  0  0  0 
 24 26  1  0  0  0  0 
M  END
> <ID>
CHEBI:181805

> <NAME>
Anguidine

$$$$
24847262
  CDK     1019211303

 32 35  0  0  0  0  0  0  0  0999 V2000
    1.3706   -0.1386    0.0000 O   0  0  0  0  0  0  0  0  0  0  0  0
    4.5718    0.9777    0.0000 O   0  0  0  0  0  0  0  0  0  0  0  0
    4.7115    2.1479    0.0000 O   0  0  0  0  0  0  0  0  0  0  0  0
    2.9867    3.1437    0.0000 O   0  0  0  0  0  0  0  0  0  0  0  0
    3.4889   -1.5609    0.0000 O   0  0  0  0  0  0  0  0  0  0  0  0
    4.9858   -2.3405    0.0000 O   0  0  0  0  0  0  0  0  0  0  0  0
    4.3417    3.5281    0.0000 O   0  0  0  0  0  0  0  0  0  0  0  0
    2.0635   -1.6605    0.0000 O   0  0  0  0  0  0  0  0  0  0  0  0
    6.4115   -2.2463    0.0000 O   0  0  0  0  0  0  0  0  0  0  0  0
    3.1079    0.4375    0.0000 C   0  0  1  0  0  0  0  0  0  0  0  0
    1.9539    0.4447    0.0000 C   0  0  2  0  0  0  0  0  0  0  0  0
    4.1153   -0.2766    0.0000 C   0  0  2  0  0  0  0  0  0  0  0  0
    2.8944    1.2343    0.0000 C   0  0  1  0  0  0  0  0  0  0  0  0
    3.9146    1.9344    0.0000 C   0  0  0  0  0  0  0  0  0  0  0  0
    1.1571    0.6583    0.0000 C   0  0  0  0  0  0  0  0  0  0  0  0
    3.2002    2.3469    0.0000 C   0  0  1  0  0  0  0  0  0  0  0  0
    4.7992    0.1847    0.0000 C   0  0  1  0  0  0  0  0  0  0  0  0
    2.8944   -0.3593    0.0000 C   0  0  0  0  0  0  0  0  0  0  0  0
    4.1620   -1.1346    0.0000 C   0  0  0  0  0  0  0  0  0  0  0  0
    3.4313   -0.7379    0.0000 C   0  0  0  0  0  0  0  0  0  0  0  0
    4.9314   -1.5173    0.0000 C   0  0  0  0  0  0  0  0  0  0  0  0
    5.5772   -0.1801    0.0000 C   0  0  0  0  0  0  0  0  0  0  0  0
    5.6438   -1.0368    0.0000 C   0  0  0  0  0  0  0  0  0  0  0  0
    4.9250    2.9448    0.0000 C   0  0  0  0  0  0  0  0  0  0  0  0
    6.3866   -1.3956    0.0000 C   0  0  0  0  0  0  0  0  0  0  0  0
    2.8049   -2.0222    0.0000 C   0  0  0  0  0  0  0  0  0  0  0  0
    5.7218    3.1583    0.0000 C   0  0  0  0  0  0  0  0  0  0  0  0
    5.7258   -2.7049    0.0000 C   0  0  0  0  0  0  0  0  0  0  0  0
    2.8625   -2.8451    0.0000 C   0  0  0  0  0  0  0  0  0  0  0  0
    5.7802   -3.5281    0.0000 C   0  0  0  0  0  0  0  0  0  0  0  0
    2.7129    1.9117    0.0000 H   0  0  0  0  0  0  0  0  0  0  0  0
    5.3805    0.5768    0.0000 H   0  0  0  0  0  0  0  0  0  0  0  0
 11  1  1  1  0  0  0 
  1 15  1  0  0  0  0 
  2 13  1  0  0  0  0 
  2 17  1  0  0  0  0 
  3 14  1  0  0  0  0 
  3 24  1  0  0  0  0 
 16  4  1  6  0  0  0 
  5 20  1  0  0  0  0 
  5 26  1  0  0  0  0 
  6 21  1  0  0  0  0 
  6 28  1  0  0  0  0 
  7 24  2  0  0  0  0 
  8 26  2  0  0  0  0 
  9 28  2  0  0  0  0 
 10 11  1  0  0  0  0 
 10 12  1  0  0  0  0 
 10 14  1  0  0  0  0 
 10 18  1  1  0  0  0 
 11 13  1  0  0  0  0 
 11 15  1  0  0  0  0 
 12 17  1  0  0  0  0 
 12 19  1  0  0  0  0 
 12 20  1  1  0  0  0 
 13 16  1  0  0  0  0 
 13 31  1  6  0  0  0 
 14 16  1  0  0  0  0 
 17 22  1  0  0  0  0 
 17 32  1  1  0  0  0 
 19 21  1  0  0  0  0 
 21 23  1  0  0  0  0 
 22 23  2  0  0  0  0 
 23 25  1  0  0  0  0 
 24 27  1  0  0  0  0 
 26 29  1  0  0  0  0 
 28 30  1  0  0  0  0 
M  END
> <ID>
CHEBI:181908

> <NAME>
(3alpha)-3-Hydroxy-12,13-epoxytrichothec-9-ene-4,8,15-triyl triacetate

$$$$
442400
  CDK     1019211303

 35 38  0  0  0  0  0  0  0  0999 V2000
    1.6675    0.4553    0.0000 O   0  0  0  0  0  0  0  0  0  0  0  0
    4.8689    1.5715    0.0000 O   0  0  0  0  0  0  0  0  0  0  0  0
    5.0085    2.7418    0.0000 O   0  0  0  0  0  0  0  0  0  0  0  0
    3.2837    3.7377    0.0000 O   0  0  0  0  0  0  0  0  0  0  0  0
    3.7859   -0.9671    0.0000 O   0  0  0  0  0  0  0  0  0  0  0  0
    5.2828   -1.7466    0.0000 O   0  0  0  0  0  0  0  0  0  0  0  0
    4.6387    4.1221    0.0000 O   0  0  0  0  0  0  0  0  0  0  0  0
    2.3605   -1.0668    0.0000 O   0  0  0  0  0  0  0  0  0  0  0  0
    6.7087   -1.6525    0.0000 O   0  0  0  0  0  0  0  0  0  0  0  0
    3.4050    1.0314    0.0000 C   0  0  1  0  0  0  0  0  0  0  0  0
    2.2509    1.0386    0.0000 C   0  0  1  0  0  0  0  0  0  0  0  0
    4.4123    0.3172    0.0000 C   0  0  2  0  0  0  0  0  0  0  0  0
    3.1915    1.8282    0.0000 C   0  0  1  0  0  0  0  0  0  0  0  0
    4.2117    2.5283    0.0000 C   0  0  1  0  0  0  0  0  0  0  0  0
    1.4540    1.2522    0.0000 C   0  0  0  0  0  0  0  0  0  0  0  0
    3.4973    2.9408    0.0000 C   0  0  1  0  0  0  0  0  0  0  0  0
    5.0962    0.7785    0.0000 C   0  0  1  0  0  0  0  0  0  0  0  0
    3.1914    0.2345    0.0000 C   0  0  0  0  0  0  0  0  0  0  0  0
    4.4590   -0.5409    0.0000 C   0  0  0  0  0  0  0  0  0  0  0  0
    3.7284   -0.1441    0.0000 C   0  0  0  0  0  0  0  0  0  0  0  0
    5.2285   -0.9235    0.0000 C   0  0  1  0  0  0  0  0  0  0  0  0
    5.8743    0.4137    0.0000 C   0  0  0  0  0  0  0  0  0  0  0  0
    5.9409   -0.4430    0.0000 C   0  0  0  0  0  0  0  0  0  0  0  0
    5.2220    3.5387    0.0000 C   0  0  0  0  0  0  0  0  0  0  0  0
    6.6837   -0.8018    0.0000 C   0  0  0  0  0  0  0  0  0  0  0  0
    3.1020   -1.4285    0.0000 C   0  0  0  0  0  0  0  0  0  0  0  0
    6.0189    3.7523    0.0000 C   0  0  0  0  0  0  0  0  0  0  0  0
    6.0229   -2.1112    0.0000 C   0  0  0  0  0  0  0  0  0  0  0  0
    3.1595   -2.2514    0.0000 C   0  0  0  0  0  0  0  0  0  0  0  0
    6.0773   -2.9344    0.0000 C   0  0  0  0  0  0  0  0  0  0  0  0
    6.8174   -3.2988    0.0000 C   0  0  0  0  0  0  0  0  0  0  0  0
    6.8717   -4.1221    0.0000 C   0  0  0  0  0  0  0  0  0  0  0  0
    7.5031   -2.8402    0.0000 C   0  0  0  0  0  0  0  0  0  0  0  0
    3.0100    2.5055    0.0000 H   0  0  0  0  0  0  0  0  0  0  0  0
    5.6776    1.1706    0.0000 H   0  0  0  0  0  0  0  0  0  0  0  0
 11  1  1  6  0  0  0 
  1 15  1  0  0  0  0 
  2 13  1  0  0  0  0 
  2 17  1  0  0  0  0 
 14  3  1  1  0  0  0 
  3 24  1  0  0  0  0 
 16  4  1  6  0  0  0 
  5 20  1  0  0  0  0 
  5 26  1  0  0  0  0 
 21  6  1  1  0  0  0 
  6 28  1  0  0  0  0 
  7 24  2  0  0  0  0 
  8 26  2  0  0  0  0 
  9 28  2  0  0  0  0 
 10 11  1  0  0  0  0 
 10 12  1  0  0  0  0 
 10 14  1  0  0  0  0 
 10 18  1  1  0  0  0 
 11 13  1  0  0  0  0 
 11 15  1  0  0  0  0 
 12 17  1  0  0  0  0 
 12 19  1  0  0  0  0 
 12 20  1  1  0  0  0 
 13 16  1  0  0  0  0 
 13 34  1  6  0  0  0 
 14 16  1  0  0  0  0 
 17 22  1  0  0  0  0 
 17 35  1  1  0  0  0 
 19 21  1  0  0  0  0 
 21 23  1  0  0  0  0 
 22 23  2  0  0  0  0 
 23 25  1  0  0  0  0 
 24 27  1  0  0  0  0 
 26 29  1  0  0  0  0 
 28 30  1  0  0  0  0 
 30 31  1  0  0  0  0 
 31 32  1  0  0  0  0 
 31 33  1  0  0  0  0 
M  END
> <ID>
CHEBI:181947

> <NAME>
[(1S,2R,4S,7R,9R,10R,11S,12R)-11-acetyloxy-2-(acetyloxymethyl)-10-hydroxy-1,5-dimethylspiro[8-oxatricyclo[7.2.1.02,7]dodec-5-ene-12,2'-oxirane]-4-yl] 3-methylbutanoate

$$$$
133053893
  CDK     1019211303

 20 23  0  0  0  0  0  0  0  0999 V2000
    6.4001   -0.2778    0.0000 O   0  0  0  0  0  0  0  0  0  0  0  0
    3.3265    0.7939    0.0000 O   0  0  0  0  0  0  0  0  0  0  0  0
    3.1924    1.9175    0.0000 O   0  0  0  0  0  0  0  0  0  0  0  0
    4.3817   -1.6694    0.0000 O   0  0  0  0  0  0  0  0  0  0  0  0
    2.9291   -2.3918    0.0000 O   0  0  0  0  0  0  0  0  0  0  0  0
    4.7320    0.2753    0.0000 C   0  0  1  0  0  0  0  0  0  0  0  0
    5.8400    0.2823    0.0000 C   0  0  2  0  0  0  0  0  0  0  0  0
    3.7648   -0.4104    0.0000 C   0  0  2  0  0  0  0  0  0  0  0  0
    4.9370    1.0404    0.0000 C   0  0  0  0  0  0  0  0  0  0  0  0
    3.9575    1.7125    0.0000 C   0  0  0  0  0  0  0  0  0  0  0  0
    6.6050    0.4873    0.0000 C   0  0  0  0  0  0  0  0  0  0  0  0
    4.6435    2.1085    0.0000 C   0  0  0  0  0  0  0  0  0  0  0  0
    3.1082    0.0326    0.0000 C   0  0  0  0  0  0  0  0  0  0  0  0
    4.9370   -0.4897    0.0000 C   0  0  0  0  0  0  0  0  0  0  0  0
    3.7200   -1.2342    0.0000 C   0  0  0  0  0  0  0  0  0  0  0  0
    4.4215   -0.8533    0.0000 C   0  0  0  0  0  0  0  0  0  0  0  0
    2.3613   -0.3176    0.0000 C   0  0  0  0  0  0  0  0  0  0  0  0
    2.9813   -1.6015    0.0000 C   0  0  0  0  0  0  0  0  0  0  0  0
    2.2973   -1.1402    0.0000 C   0  0  0  0  0  0  0  0  0  0  0  0
    1.5841   -1.4846    0.0000 C   0  0  0  0  0  0  0  0  0  0  0  0
  7  1  1  6  0  0  0 
  1 11  1  0  0  0  0 
  2  9  1  0  0  0  0 
  2 13  1  0  0  0  0 
  3 10  1  0  0  0  0 
  4 15  1  0  0  0  0 
  5 18  2  0  0  0  0 
  6  7  1  0  0  0  0 
  6  8  1  0  0  0  0 
  6 10  1  0  0  0  0 
  6 14  1  6  0  0  0 
  7  9  1  0  0  0  0 
  7 11  1  0  0  0  0 
  8 13  1  0  0  0  0 
  8 15  1  0  0  0  0 
  8 16  1  6  0  0  0 
  9 12  1  0  0  0  0 
 10 12  1  0  0  0  0 
 13 17  1  0  0  0  0 
 15 18  1  0  0  0  0 
 17 19  2  0  0  0  0 
 18 19  1  0  0  0  0 
 19 20  1  0  0  0  0 
M  END
> <ID>
CHEBI:181984

> <NAME>
(1S,2S,12S)-3,11-dihydroxy-1,2,5-trimethylspiro[8-oxatricyclo[7.2.1.02,7]dodec-5-ene-12,2'-oxirane]-4-one

$$$$
96355386
  CDK     1019211304

 31 34  0  0  0  0  0  0  0  0999 V2000
    1.8456    0.4666    0.0000 O   0  0  0  0  0  0  0  0  0  0  0  0
    5.0469    1.5829    0.0000 O   0  0  0  0  0  0  0  0  0  0  0  0
    3.4618    3.7490    0.0000 O   0  0  0  0  0  0  0  0  0  0  0  0
    3.9640   -0.9557    0.0000 O   0  0  0  0  0  0  0  0  0  0  0  0
    5.4609   -1.7353    0.0000 O   0  0  0  0  0  0  0  0  0  0  0  0
    2.5386   -1.0554    0.0000 O   0  0  0  0  0  0  0  0  0  0  0  0
    6.8867   -1.6411    0.0000 O   0  0  0  0  0  0  0  0  0  0  0  0
    3.5830    1.0427    0.0000 C   0  0  1  0  0  0  0  0  0  0  0  0
    2.4290    1.0499    0.0000 C   0  0  2  0  0  0  0  0  0  0  0  0
    4.5904    0.3285    0.0000 C   0  0  2  0  0  0  0  0  0  0  0  0
    3.3695    1.8395    0.0000 C   0  0  1  0  0  0  0  0  0  0  0  0
    4.3897    2.5397    0.0000 C   0  0  0  0  0  0  0  0  0  0  0  0
    1.6321    1.2635    0.0000 C   0  0  0  0  0  0  0  0  0  0  0  0
    3.6753    2.9522    0.0000 C   0  0  1  0  0  0  0  0  0  0  0  0
    5.2743    0.7898    0.0000 C   0  0  1  0  0  0  0  0  0  0  0  0
    4.6371   -0.5295    0.0000 C   0  0  0  0  0  0  0  0  0  0  0  0
    3.3695    0.2458    0.0000 C   0  0  0  0  0  0  0  0  0  0  0  0
    3.9064   -0.1327    0.0000 C   0  0  0  0  0  0  0  0  0  0  0  0
    5.4065   -0.9122    0.0000 C   0  0  1  0  0  0  0  0  0  0  0  0
    6.0523    0.4251    0.0000 C   0  0  0  0  0  0  0  0  0  0  0  0
    6.1189   -0.4316    0.0000 C   0  0  0  0  0  0  0  0  0  0  0  0
    6.8618   -0.7904    0.0000 C   0  0  0  0  0  0  0  0  0  0  0  0
    3.2801   -1.4171    0.0000 C   0  0  0  0  0  0  0  0  0  0  0  0
    6.2010   -2.0998    0.0000 C   0  0  0  0  0  0  0  0  0  0  0  0
    3.3376   -2.2401    0.0000 C   0  0  0  0  0  0  0  0  0  0  0  0
    6.2554   -2.9230    0.0000 C   0  0  0  0  0  0  0  0  0  0  0  0
    6.9954   -3.2875    0.0000 C   0  0  0  0  0  0  0  0  0  0  0  0
    7.0498   -4.1107    0.0000 C   0  0  0  0  0  0  0  0  0  0  0  0
    7.6812   -2.8288    0.0000 C   0  0  0  0  0  0  0  0  0  0  0  0
    3.1880    2.5169    0.0000 H   0  0  0  0  0  0  0  0  0  0  0  0
    5.8557    1.1820    0.0000 H   0  0  0  0  0  0  0  0  0  0  0  0
  9  1  1  1  0  0  0 
  1 13  1  0  0  0  0 
  2 11  1  0  0  0  0 
  2 15  1  0  0  0  0 
 14  3  1  6  0  0  0 
  4 18  1  0  0  0  0 
  4 23  1  0  0  0  0 
 19  5  1  1  0  0  0 
  5 24  1  0  0  0  0 
  6 23  2  0  0  0  0 
  7 24  2  0  0  0  0 
  8  9  1  0  0  0  0 
  8 10  1  0  0  0  0 
  8 12  1  0  0  0  0 
  8 17  1  1  0  0  0 
  9 11  1  0  0  0  0 
  9 13  1  0  0  0  0 
 10 15  1  0  0  0  0 
 10 16  1  0  0  0  0 
 10 18  1  1  0  0  0 
 11 14  1  0  0  0  0 
 11 30  1  6  0  0  0 
 12 14  1  0  0  0  0 
 15 20  1  0  0  0  0 
 15 31  1  1  0  0  0 
 16 19  1  0  0  0  0 
 19 21  1  0  0  0  0 
 20 21  2  0  0  0  0 
 21 22  1  0  0  0  0 
 23 25  1  0  0  0  0 
 24 26  1  0  0  0  0 
 26 27  1  0  0  0  0 
 27 28  1  0  0  0  0 
 27 29  1  0  0  0  0 
M  END
> <ID>
CHEBI:182230

> <NAME>
[(1R,2R,4S,7R,9R,10R,12S)-2-(acetyloxymethyl)-10-hydroxy-1,5-dimethylspiro[8-oxatricyclo[7.2.1.02,7]dodec-5-ene-12,2'-oxirane]-4-yl] 3-methylbutanoate

$$$$
12444784
  CDK     1116211529

 38 42  0  0  0  0  0  0  0  0999 V2000
    3.1104   -1.0996    0.0000 O   0  0  0  0  0  0  0  0  0  0  0  0
    3.0518    0.1665    0.0000 O   0  0  0  0  0  0  0  0  0  0  0  0
    3.6624    1.4975    0.0000 O   0  0  0  0  0  0  0  0  0  0  0  0
    5.5313    0.3698    0.0000 O   0  0  0  0  0  0  0  0  0  0  0  0
    3.9173    0.7130    0.0000 O   0  0  0  0  0  0  0  0  0  0  0  0
    6.0411   -1.1994    0.0000 O   0  0  0  0  0  0  0  0  0  0  0  0
    7.9522   -0.1447    0.0000 O   0  0  0  0  0  0  0  0  0  0  0  0
    7.4002   -0.7578    0.0000 O   0  0  0  0  0  0  0  0  0  0  0  0
    3.3653    0.0998    0.0000 C   0  0  1  0  0  0  0  0  0  0  0  0
    2.6979   -0.3851    0.0000 C   0  0  2  0  0  0  0  0  0  0  0  0
    4.1723   -0.0717    0.0000 C   0  0  2  0  0  0  0  0  0  0  0  0
    2.0304    0.0998    0.0000 C   0  0  1  0  0  0  0  0  0  0  0  0
    3.1104    0.8844    0.0000 C   0  0  1  0  0  0  0  0  0  0  0  0
    2.2854   -1.0996    0.0000 C   0  0  0  0  0  0  0  0  0  0  0  0
    2.2854    0.8844    0.0000 C   0  0  0  0  0  0  0  0  0  0  0  0
    3.6203   -0.6848    0.0000 C   0  0  1  0  0  0  0  0  0  0  0  0
    3.0098   -0.7798    0.0000 C   0  0  0  0  0  0  0  0  0  0  0  0
    4.9793   -0.2432    0.0000 C   0  0  0  0  0  0  0  0  0  0  0  0
    4.7243    0.5414    0.0000 C   0  0  0  0  0  0  0  0  0  0  0  0
    3.8752   -1.4694    0.0000 C   0  0  0  0  0  0  0  0  0  0  0  0
    5.2342   -1.0279    0.0000 C   0  0  0  0  0  0  0  0  0  0  0  0
    4.6821   -1.6409    0.0000 C   0  0  0  0  0  0  0  0  0  0  0  0
    4.4694    1.3260    0.0000 C   0  0  0  0  0  0  0  0  0  0  0  0
    4.9371   -2.4256    0.0000 C   0  0  0  0  0  0  0  0  0  0  0  0
    5.7862   -0.4147    0.0000 C   0  0  0  0  0  0  0  0  0  0  0  0
    5.0214    1.9391    0.0000 C   0  0  0  0  0  0  0  0  0  0  0  0
    6.5932   -0.5863    0.0000 C   0  0  0  0  0  0  0  0  0  0  0  0
    5.8284    1.7676    0.0000 C   0  0  0  0  0  0  0  0  0  0  0  0
    6.8482   -1.3709    0.0000 C   0  0  0  0  0  0  0  0  0  0  0  0
    6.0833    0.9830    0.0000 C   0  0  0  0  0  0  0  0  0  0  0  0
    7.6551   -1.5424    0.0000 C   0  0  0  0  0  0  0  0  0  0  0  0
    6.2961   -1.9840    0.0000 C   0  0  0  0  0  0  0  0  0  0  0  0
    8.2071   -0.9294    0.0000 C   0  0  0  0  0  0  0  0  0  0  0  0
    6.8903    0.8115    0.0000 C   0  0  0  0  0  0  0  0  0  0  0  0
    7.1452    0.0268    0.0000 C   0  0  0  0  0  0  0  0  0  0  0  0
    1.3306    0.0542    0.0000 H   0  0  0  0  0  0  0  0  0  0  0  0
    2.8937    1.5513    0.0000 H   0  0  0  0  0  0  0  0  0  0  0  0
    4.3062   -0.8306    0.0000 H   0  0  0  0  0  0  0  0  0  0  0  0
 10  1  1  1  0  0  0 
  1 14  1  0  0  0  0 
  2 12  1  0  0  0  0 
  2 16  1  0  0  0  0 
  3 13  1  0  0  0  0 
  3 23  1  0  0  0  0 
  4 19  1  0  0  0  0 
  4 25  1  0  0  0  0 
  5 23  2  0  0  0  0 
  6 25  2  0  0  0  0 
  7 33  1  0  0  0  0 
  7 35  1  0  0  0  0 
  8 35  2  0  0  0  0 
  9 10  1  0  0  0  0 
  9 11  1  0  0  0  0 
  9 13  1  0  0  0  0 
  9 17  1  1  0  0  0 
 10 12  1  0  0  0  0 
 10 14  1  0  0  0  0 
 11 16  1  0  0  0  0 
 11 18  1  1  0  0  0 
 11 19  1  0  0  0  0 
 12 15  1  0  0  0  0 
 12 36  1  6  0  0  0 
 13 15  1  0  0  0  0 
 13 37  1  6  0  0  0 
 16 20  1  0  0  0  0 
 16 38  1  6  0  0  0 
 18 21  1  0  0  0  0 
 20 22  2  0  0  0  0 
 21 22  1  0  0  0  0 
 22 24  1  0  0  0  0 
 23 26  1  0  0  0  0 
 25 27  1  0  0  0  0 
 26 28  2  0  0  0  0 
 27 29  2  0  0  0  0 
 28 30  1  0  0  0  0 
 29 31  1  0  0  0  0 
 29 32  1  0  0  0  0 
 30 34  2  0  0  0  0 
 31 33  1  0  0  0  0 
 34 35  1  0  0  0  0 
M  END
> <ID>
CHEBI:184115

> <NAME>
Verrucarin j

$$$$
5489399
  CDK     1202211636

 25 29  0  0  0  0  0  0  0  0999 V2000
    2.7848   -0.6558    0.0000 O   0  0  0  0  0  0  0  0  0  0  0  0
    4.0411   -1.5729    0.0000 O   0  0  0  0  0  0  0  0  0  0  0  0
    5.5229    0.7751    0.0000 O   0  0  0  0  0  0  0  0  0  0  0  0
    2.1170    0.6437    0.0000 O   0  0  0  0  0  0  0  0  0  0  0  0
    6.9649   -1.7340    0.0000 O   0  0  0  0  0  0  0  0  0  0  0  0
    7.7109   -0.4992    0.0000 O   0  0  0  0  0  0  0  0  0  0  0  0
    8.4994    0.7957    0.0000 O   0  0  0  0  0  0  0  0  0  0  0  0
    4.0411   -0.2452    0.0000 C   0  0  0  0  0  0  0  0  0  0  0  0
    3.5596   -0.9090    0.0000 C   0  0  0  0  0  0  0  0  0  0  0  0
    3.5596    0.4127    0.0000 C   0  0  0  0  0  0  0  0  0  0  0  0
    4.8216   -0.4965    0.0000 C   0  0  0  0  0  0  0  0  0  0  0  0
    2.7848    0.1595    0.0000 C   0  0  0  0  0  0  0  0  0  0  0  0
    4.8216   -1.3215    0.0000 C   0  0  0  0  0  0  0  0  0  0  0  0
    5.5361   -0.0841    0.0000 C   0  0  0  0  0  0  0  0  0  0  0  0
    6.2505   -0.4965    0.0000 C   0  0  0  0  0  0  0  0  0  0  0  0
    5.5361   -1.7340    0.0000 C   0  0  0  0  0  0  0  0  0  0  0  0
    6.2505   -1.3215    0.0000 C   0  0  0  0  0  0  0  0  0  0  0  0
    7.0012   -0.0785    0.0000 C   0  0  0  0  0  0  0  0  0  0  0  0
    7.0078    0.7808    0.0000 C   0  0  0  0  0  0  0  0  0  0  0  0
    6.2637    1.2104    0.0000 C   0  0  0  0  0  0  0  0  0  0  0  0
    7.7898    1.2164    0.0000 C   0  0  0  0  0  0  0  0  0  0  0  0
    6.2499    2.1054    0.0000 C   0  0  0  0  0  0  0  0  0  0  0  0
    7.7967    2.1114    0.0000 C   0  0  0  0  0  0  0  0  0  0  0  0
    7.0215    2.5589    0.0000 C   0  0  0  0  0  0  0  0  0  0  0  0
    6.9649   -2.5589    0.0000 C   0  0  0  0  0  0  0  0  0  0  0  0
  1  9  1  0  0  0  0 
  1 12  1  0  0  0  0 
  2  9  1  0  0  0  0 
  2 13  1  0  0  0  0 
  3 14  1  0  0  0  0 
  3 20  1  0  0  0  0 
  4 12  1  0  0  0  0 
  5 17  1  0  0  0  0 
  5 25  1  0  0  0  0 
  6 18  2  0  0  0  0 
  7 21  1  0  0  0  0 
  8  9  1  0  0  0  0 
  8 10  1  0  0  0  0 
  8 11  1  0  0  0  0 
 10 12  1  0  0  0  0 
 11 13  1  0  0  0  0 
 11 14  2  0  0  0  0 
 13 16  2  0  0  0  0 
 14 15  1  0  0  0  0 
 15 17  2  0  0  0  0 
 15 18  1  0  0  0  0 
 16 17  1  0  0  0  0 
 18 19  1  0  0  0  0 
 19 20  1  0  0  0  0 
 19 21  2  0  0  0  0 
 20 22  2  0  0  0  0 
 21 23  1  0  0  0  0 
 22 24  1  0  0  0  0 
 23 24  2  0  0  0  0 
M  END
> <ID>
CHEBI:185409

> <NAME>
Hydroxydihydrosterigmatocystin

$$$$
10760703
  CDK     0110221632

 26 30  0  0  0  0  0  0  0  0999 V2000
    3.3757   -0.7949    0.0000 O   0  0  0  0  0  0  0  0  0  0  0  0
    4.8986   -1.9067    0.0000 O   0  0  0  0  0  0  0  0  0  0  0  0
    6.6948    0.9396    0.0000 O   0  0  0  0  0  0  0  0  0  0  0  0
    2.5662    0.7803    0.0000 O   0  0  0  0  0  0  0  0  0  0  0  0
    8.4429   -2.1019    0.0000 O   0  0  0  0  0  0  0  0  0  0  0  0
    9.3471   -0.6051    0.0000 O   0  0  0  0  0  0  0  0  0  0  0  0
   10.3030    0.9645    0.0000 O   0  0  0  0  0  0  0  0  0  0  0  0
    4.8986   -0.2972    0.0000 C   0  0  0  0  0  0  0  0  0  0  0  0
    4.3150   -1.1019    0.0000 C   0  0  0  0  0  0  0  0  0  0  0  0
    4.3150    0.5003    0.0000 C   0  0  0  0  0  0  0  0  0  0  0  0
    5.8448   -0.6019    0.0000 C   0  0  0  0  0  0  0  0  0  0  0  0
    3.3757    0.1933    0.0000 C   0  0  0  0  0  0  0  0  0  0  0  0
    5.8448   -1.6019    0.0000 C   0  0  0  0  0  0  0  0  0  0  0  0
    6.7109   -0.1019    0.0000 C   0  0  0  0  0  0  0  0  0  0  0  0
    7.5769   -0.6019    0.0000 C   0  0  0  0  0  0  0  0  0  0  0  0
    6.7109   -2.1019    0.0000 C   0  0  0  0  0  0  0  0  0  0  0  0
    7.5769   -1.6019    0.0000 C   0  0  0  0  0  0  0  0  0  0  0  0
    8.4869   -0.0951    0.0000 C   0  0  0  0  0  0  0  0  0  0  0  0
    8.4949    0.9465    0.0000 C   0  0  0  0  0  0  0  0  0  0  0  0
    7.5928    1.4673    0.0000 C   0  0  0  0  0  0  0  0  0  0  0  0
    9.4428    1.4745    0.0000 C   0  0  0  0  0  0  0  0  0  0  0  0
    7.5761    2.5522    0.0000 C   0  0  0  0  0  0  0  0  0  0  0  0
    9.4512    2.5594    0.0000 C   0  0  0  0  0  0  0  0  0  0  0  0
    8.5115    3.1019    0.0000 C   0  0  0  0  0  0  0  0  0  0  0  0
    8.4429   -3.1019    0.0000 C   0  0  0  0  0  0  0  0  0  0  0  0
   11.1747    1.4544    0.0000 C   0  0  0  0  0  0  0  0  0  0  0  0
  1  9  1  0  0  0  0 
  1 12  1  0  0  0  0 
  2  9  1  0  0  0  0 
  2 13  1  0  0  0  0 
  3 14  1  0  0  0  0 
  3 20  1  0  0  0  0 
  4 12  1  0  0  0  0 
  5 17  1  0  0  0  0 
  5 25  1  0  0  0  0 
  6 18  2  0  0  0  0 
  7 21  1  0  0  0  0 
  7 26  1  0  0  0  0 
  8  9  1  0  0  0  0 
  8 10  1  0  0  0  0 
  8 11  1  0  0  0  0 
 10 12  1  0  0  0  0 
 11 13  1  0  0  0  0 
 11 14  2  0  0  0  0 
 13 16  2  0  0  0  0 
 14 15  1  0  0  0  0 
 15 17  2  0  0  0  0 
 15 18  1  0  0  0  0 
 16 17  1  0  0  0  0 
 18 19  1  0  0  0  0 
 19 20  2  0  0  0  0 
 19 21  1  0  0  0  0 
 20 22  1  0  0  0  0 
 21 23  2  0  0  0  0 
 22 24  2  0  0  0  0 
 23 24  1  0  0  0  0 
M  END
> <ID>
CHEBI:189011

> <NAME>
Dihydrohydroxy-O-methylsterigmatocystin

$$$$
5351257
  CDK     0504221643

 28 32  0  0  0  0  0  0  0  0999 V2000
    2.9063   -1.9607    0.0000 O   0  0  0  0  0  0  0  0  0  0  0  0
    1.6499   -1.0436    0.0000 O   0  0  0  0  0  0  0  0  0  0  0  0
    4.3881    0.3873    0.0000 O   0  0  0  0  0  0  0  0  0  0  0  0
    5.8302   -2.1218    0.0000 O   0  0  0  0  0  0  0  0  0  0  0  0
    6.5761   -0.8869    0.0000 O   0  0  0  0  0  0  0  0  0  0  0  0
    4.3959    2.1219    0.0000 O   0  0  0  0  0  0  0  0  0  0  0  0
    7.3647    0.4079    0.0000 O   0  0  0  0  0  0  0  0  0  0  0  0
    2.9063   -0.6330    0.0000 C   0  0  1  0  0  0  0  0  0  0  0  0
    3.6868   -0.8844    0.0000 C   0  0  0  0  0  0  0  0  0  0  0  0
    2.4248   -1.2968    0.0000 C   0  0  1  0  0  0  0  0  0  0  0  0
    3.6868   -1.7093    0.0000 C   0  0  0  0  0  0  0  0  0  0  0  0
    4.4013   -0.4719    0.0000 C   0  0  0  0  0  0  0  0  0  0  0  0
    2.4248    0.0249    0.0000 C   0  0  0  0  0  0  0  0  0  0  0  0
    5.1158   -0.8844    0.0000 C   0  0  0  0  0  0  0  0  0  0  0  0
    4.4013   -2.1218    0.0000 C   0  0  0  0  0  0  0  0  0  0  0  0
    5.1158   -1.7093    0.0000 C   0  0  0  0  0  0  0  0  0  0  0  0
    1.6499   -0.2284    0.0000 C   0  0  0  0  0  0  0  0  0  0  0  0
    5.8665   -0.4663    0.0000 C   0  0  0  0  0  0  0  0  0  0  0  0
    5.8731    0.3930    0.0000 C   0  0  0  0  0  0  0  0  0  0  0  0
    5.1289    0.8227    0.0000 C   0  0  0  0  0  0  0  0  0  0  0  0
    5.1151    1.7177    0.0000 C   0  0  0  0  0  0  0  0  0  0  0  0
    6.6551    0.8286    0.0000 C   0  0  0  0  0  0  0  0  0  0  0  0
    5.8868    2.1711    0.0000 C   0  0  0  0  0  0  0  0  0  0  0  0
    6.6620    1.7237    0.0000 C   0  0  0  0  0  0  0  0  0  0  0  0
    5.8302   -2.9468    0.0000 C   0  0  0  0  0  0  0  0  0  0  0  0
    4.3864    2.9468    0.0000 C   0  0  0  0  0  0  0  0  0  0  0  0
    3.3167   -0.0644    0.0000 H   0  0  0  0  0  0  0  0  0  0  0  0
    2.0119   -1.8636    0.0000 H   0  0  0  0  0  0  0  0  0  0  0  0
  1 10  1  0  0  0  0 
  1 11  1  0  0  0  0 
  2 10  1  0  0  0  0 
  2 17  1  0  0  0  0 
  3 12  1  0  0  0  0 
  3 20  1  0  0  0  0 
  4 16  1  0  0  0  0 
  4 25  1  0  0  0  0 
  5 18  2  0  0  0  0 
  6 21  1  0  0  0  0 
  6 26  1  0  0  0  0 
  7 22  1  0  0  0  0 
  8  9  1  0  0  0  0 
  8 10  1  0  0  0  0 
  8 13  1  0  0  0  0 
  8 27  1  6  0  0  0 
  9 11  1  0  0  0  0 
  9 12  2  0  0  0  0 
 10 28  1  6  0  0  0 
 11 15  2  0  0  0  0 
 12 14  1  0  0  0  0 
 13 17  2  0  0  0  0 
 14 16  2  0  0  0  0 
 14 18  1  0  0  0  0 
 15 16  1  0  0  0  0 
 18 19  1  0  0  0  0 
 19 20  1  0  0  0  0 
 19 22  2  0  0  0  0 
 20 21  2  0  0  0  0 
 21 23  1  0  0  0  0 
 22 24  1  0  0  0  0 
 23 24  2  0  0  0  0 
M  END
> <ID>
CHEBI:191267

> <NAME>
5-methoxysterigmatocystin

$$$$

Ketcher 10012214122D 1   1.00000     0.00000     0

 35 40  0     0  0            999 V2000
    5.2764   -7.7355    0.0000 C   0  0  0  0  0  0  0  0  0  0  0  0
    5.2787   -8.7369    0.0000 C   0  0  0  0  0  0  0  0  0  0  0  0
    6.1477   -7.2354    0.0000 C   0  0  0  0  0  0  0  0  0  0  0  0
    9.4030   -5.3415    0.0000 C   0  0  0  0  0  0  0  0  0  0  0  0
   10.1441   -4.6666    0.0000 C   0  0  0  0  0  0  0  0  0  0  0  0
   10.4765   -8.7262    0.0000 C   0  0  0  0  0  0  0  0  0  0  0  0
    9.8115   -6.2525    0.0000 C   0  0  0  0  0  0  0  0  0  0  0  0
    6.1470   -9.2349    0.0000 C   0  0  0  0  0  0  0  0  0  0  0  0
    7.0160   -7.7334    0.0000 C   0  0  0  0  0  0  0  0  0  0  0  0
   10.4742   -7.7248    0.0000 C   0  0  0  0  0  0  0  0  0  0  0  0
    9.6144   -9.2238    0.0000 C   0  0  0  0  0  0  0  0  0  0  0  0
    9.6120   -7.2304    0.0000 C   0  0  0  0  0  0  0  0  0  0  0  0
    7.0128   -8.7313    0.0000 C   0  0  0  0  0  0  0  0  0  0  0  0
    8.7523   -8.7293    0.0000 C   0  0  0  0  0  0  0  0  0  0  0  0
    7.8867   -9.2326    0.0000 C   0  0  0  0  0  0  0  0  0  0  0  0
   11.3557  -12.2224    0.0000 C   0  0  0  0  0  0  0  0  0  0  0  0
   12.2215  -11.7189    0.0000 C   0  0  0  0  0  0  0  0  0  0  0  0
   10.4877  -11.7246    0.0000 C   0  0  0  0  0  0  0  0  0  0  0  0
    8.7463   -7.7339    0.0000 C   0  0  0  0  0  0  0  0  0  0  0  0
   12.2130  -10.7142    0.0000 C   0  0  0  0  0  0  0  0  0  0  0  0
   13.0752  -10.2168    0.0000 C   0  0  0  0  0  0  0  0  0  0  0  0
   10.8094   -6.1482    0.0000 C   0  0  0  0  0  0  0  0  0  0  0  0
   10.4851  -10.7230    0.0000 C   0  0  0  0  0  0  0  0  0  0  0  0
    6.1497  -10.2362    0.0000 O   0  0  0  0  0  0  0  0  0  0  0  0
    7.8833  -10.2308    0.0000 O   0  0  0  0  0  0  0  0  0  0  0  0
   11.3584  -13.2238    0.0000 O   0  0  0  0  0  0  0  0  0  0  0  0
   13.0895  -12.2168    0.0000 O   0  0  0  0  0  0  0  0  0  0  0  0
    9.6221  -12.2279    0.0000 O   0  0  0  0  0  0  0  0  0  0  0  0
   13.0727   -9.2153    0.0000 O   0  0  0  0  0  0  0  0  0  0  0  0
   13.9435  -10.7148    0.0000 O   0  0  0  0  0  0  0  0  0  0  0  0
   11.0121   -5.1644    0.0000 O   0  0  0  0  0  0  0  0  0  0  0  0
    7.8780   -7.2359    0.0000 O   0  0  0  0  0  0  0  0  0  0  0  0
   11.2118   -7.0556    0.0000 O   0  0  0  0  0  0  0  0  0  0  0  0
    9.6169  -10.2250    0.0000 O   0  0  0  0  0  0  0  0  0  0  0  0
   11.3449  -10.2164    0.0000 O   0  0  0  0  0  0  0  0  0  0  0  0
  1  2  2  0     0  0
  1  3  1  0     0  0
  2  8  1  0     0  0
  3  9  2  0     0  0
  4  5  2  0     0  0
  4  7  1  0     0  0
  5 31  1  0     0  0
  6 10  2  0     0  0
  6 11  1  0     0  0
  7 12  1  0     0  0
  7 22  1  0     0  0
  8 13  2  0     0  0
  8 24  1  0     0  0
  9 13  1  0     0  0
  9 32  1  0     0  0
 10 12  1  0     0  0
 10 33  1  0     0  0
 11 14  2  0     0  0
 11 34  1  0     0  0
 12 19  2  0     0  0
 13 15  1  0     0  0
 14 15  1  0     0  0
 14 19  1  0     0  0
 15 25  2  0     0  0
 16 17  1  0     0  0
 16 18  1  0     0  0
 16 26  1  0     0  0
 17 20  1  0     0  0
 17 27  1  0     0  0
 18 23  1  0     0  0
 18 28  1  0     0  0
 19 32  1  0     0  0
 20 21  1  0     0  0
 20 35  1  0     0  0
 21 29  2  0     0  0
 21 30  1  0     0  0
 22 31  1  0     0  0
 22 33  1  0     0  0
 23 34  1  0     0  0
 23 35  1  0     0  0
M  END
> <ID>
CHEBI:193514

> <NAME>
3,4,5-trihydroxy-6-({15-hydroxy-13-oxo-6,8,20-trioxapentacyclo[10.8.0.02,9.03,7.014,19]icosa-1,4,9,11,14,16,18-heptaen-11-yl}oxy)oxane-2-carboxylic acid

$$$$

CDK     1028232200

 37 40  0  0  0  0  0  0  0  0999 V2000
    6.8008   -2.4713    0.0000 O   0  0  0  0  0  0  0  0  0  0  0  0
    7.6194   -2.5747    0.0000 C   0  0  0  0  0  0  0  0  0  0  0  0
    8.1181   -1.9176    0.0000 O   0  0  0  0  0  0  0  0  0  0  0  0
    7.9391   -3.3353    0.0000 C   0  0  0  0  0  0  0  0  0  0  0  0
    7.7984   -1.1570    0.0000 C   0  0  0  0  0  0  0  0  0  0  0  0
    7.4403   -3.9924    0.0000 C   0  0  0  0  0  0  0  0  0  0  0  0
    8.2912   -0.5241    0.0000 C   0  0  1  0  0  0  0  0  0  0  0  0
    7.7600   -4.7530    0.0000 C   0  0  0  0  0  0  0  0  0  0  0  0
    6.6218   -3.8891    0.0000 C   0  0  0  0  0  0  0  0  0  0  0  0
    7.1841   -0.3355    0.0000 C   0  0  2  0  0  0  0  0  0  0  0  0
    8.7972    0.1668    0.0000 C   0  0  2  0  0  0  0  0  0  0  0  0
    8.6327   -1.2535    0.0000 C   0  0  0  0  0  0  0  0  0  0  0  0
    7.2612   -5.4101    0.0000 C   0  0  0  0  0  0  0  0  0  0  0  0
    7.7361    0.2775    0.0000 C   0  0  1  0  0  0  0  0  0  0  0  0
    6.4304    0.0000    0.0000 C   0  0  2  0  0  0  0  0  0  0  0  0
    6.9539   -1.1278    0.0000 C   0  0  0  0  0  0  0  0  0  0  0  0
    8.4483    0.9437    0.0000 O   0  0  0  0  0  0  0  0  0  0  0  0
    9.6026    0.0813    0.0000 C   0  0  0  0  0  0  0  0  0  0  0  0
    9.4532   -1.3397    0.0000 C   0  0  0  0  0  0  0  0  0  0  0  0
    7.5810   -6.1707    0.0000 O   0  0  0  0  0  0  0  0  0  0  0  0
    8.3835   -0.1477    0.0000 O   0  0  0  0  0  0  0  0  0  0  0  0
    7.3236    0.9920    0.0000 C   0  0  2  0  0  0  0  0  0  0  0  0
    8.4187    0.5548    0.0000 C   0  0  0  0  0  0  0  0  0  0  0  0
    5.7159   -0.4125    0.0000 O   0  0  0  0  0  0  0  0  0  0  0  0
    6.5167    0.8205    0.0000 C   0  0  0  0  0  0  0  0  0  0  0  0
    9.9382   -0.6723    0.0000 C   0  0  0  0  0  0  0  0  0  0  0  0
    5.0014    0.0000    0.0000 C   0  0  0  0  0  0  0  0  0  0  0  0
   10.7586   -0.7585    0.0000 C   0  0  0  0  0  0  0  0  0  0  0  0
    5.0014    0.8250    0.0000 O   0  0  0  0  0  0  0  0  0  0  0  0
    4.2870   -0.4125    0.0000 C   0  0  0  0  0  0  0  0  0  0  0  0
    3.5724    0.0000    0.0000 C   0  0  0  0  0  0  0  0  0  0  0  0
    3.5724    0.8250    0.0000 C   0  0  0  0  0  0  0  0  0  0  0  0
    2.8579    1.2375    0.0000 C   0  0  0  0  0  0  0  0  0  0  0  0
    2.8579    2.0625    0.0000 C   0  0  0  0  0  0  0  0  0  0  0  0
    2.1435    2.4751    0.0000 C   0  0  2  0  0  0  0  0  0  0  0  0
    1.4290    2.0625    0.0000 O   0  0  0  0  0  0  0  0  0  0  0  0
    2.1435    3.3001    0.0000 C   0  0  0  0  0  0  0  0  0  0  0  0
  1  2  2  0  0  0  0 
  2  3  1  0  0  0  0 
  2  4  1  0  0  0  0 
  3  5  1  0  0  0  0 
  4  6  2  0  0  0  0 
  7  5  1  1  0  0  0 
  6  8  1  0  0  0  0 
  6  9  1  0  0  0  0 
 10  7  1  0  0  0  0 
 11  7  1  0  0  0  0 
  7 12  1  0  0  0  0 
  8 13  1  0  0  0  0 
 14 10  1  0  0  0  0 
 15 10  1  0  0  0  0 
 10 16  1  6  0  0  0 
 11 17  1  6  0  0  0 
 11 18  1  0  0  0  0 
 12 19  1  0  0  0  0 
 13 20  1  0  0  0  0 
 14 21  1  6  0  0  0 
 22 14  1  0  0  0  0 
 14 23  1  0  0  0  0 
 15 24  1  6  0  0  0 
 15 25  1  0  0  0  0 
 18 26  2  0  0  0  0 
 24 27  1  0  0  0  0 
 26 28  1  0  0  0  0 
 27 29  2  0  0  0  0 
 27 30  1  0  0  0  0 
 30 31  2  0  0  0  0 
 31 32  1  0  0  0  0 
 32 33  2  0  0  0  0 
 33 34  1  0  0  0  0 
 35 34  1  0  0  0  0 
 35 36  1  6  0  0  0 
 35 37  1  0  0  0  0 
 22 17  1  1  0  0  0 
 19 26  1  0  0  0  0 
 21 23  1  0  0  0  0 
 22 25  1  0  0  0  0 
M  END
> <ID>
CHEBI:197661

> <NAME>
6'-dehydroxytrichoverrin B

$$$$

CDK     1028232201

 33 36  0  0  0  0  0  0  0  0999 V2000
    2.8579   -1.2375    0.0000 O   0  0  0  0  0  0  0  0  0  0  0  0
    2.8579   -0.4125    0.0000 C   0  0  0  0  0  0  0  0  0  0  0  0
    3.5724    0.0000    0.0000 O   0  0  0  0  0  0  0  0  0  0  0  0
    2.1435    0.0000    0.0000 C   0  0  0  0  0  0  0  0  0  0  0  0
    4.2870   -0.4125    0.0000 C   0  0  2  0  0  0  0  0  0  0  0  0
    1.4290   -0.4125    0.0000 C   0  0  0  0  0  0  0  0  0  0  0  0
    4.2870   -1.2375    0.0000 C   0  0  0  0  0  0  0  0  0  0  0  0
    5.0014    0.0000    0.0000 C   0  0  0  0  0  0  0  0  0  0  0  0
    0.7145    0.0000    0.0000 C   0  0  0  0  0  0  0  0  0  0  0  0
    5.0014   -1.6500    0.0000 C   0  0  0  0  0  0  0  0  0  0  0  0
    3.5724   -1.6500    0.0000 C   0  0  0  0  0  0  0  0  0  0  0  0
    5.7065   -0.3894    0.0000 C   0  0  1  0  0  0  0  0  0  0  0  0
    0.0000   -0.4125    0.0000 C   0  0  0  0  0  0  0  0  0  0  0  0
    5.7033   -1.2458    0.0000 C   0  0  2  0  0  0  0  0  0  0  0  0
    6.7129    0.1088    0.0000 C   0  0  1  0  0  0  0  0  0  0  0  0
    5.7331    0.4123    0.0000 C   0  0  0  0  0  0  0  0  0  0  0  0
    6.4422   -1.6692    0.0000 O   0  0  0  0  0  0  0  0  0  0  0  0
    6.6267   -0.7117    0.0000 C   0  0  2  0  0  0  0  0  0  0  0  0
    7.5200    0.2803    0.0000 C   0  0  2  0  0  0  0  0  0  0  0  0
    6.4335    0.8851    0.0000 C   0  0  0  0  0  0  0  0  0  0  0  0
    5.0274    0.8397    0.0000 O   0  0  0  0  0  0  0  0  0  0  0  0
    7.3804   -1.0472    0.0000 C   0  0  1  0  0  0  0  0  0  0  0  0
    5.8530   -0.7482    0.0000 O   0  0  0  0  0  0  0  0  0  0  0  0
    6.2375   -1.3372    0.0000 C   0  0  0  0  0  0  0  0  0  0  0  0
    7.8555    1.0341    0.0000 O   0  0  0  0  0  0  0  0  0  0  0  0
    7.9325   -0.4341    0.0000 C   0  0  2  0  0  0  0  0  0  0  0  0
    5.0447    1.6646    0.0000 C   0  0  0  0  0  0  0  0  0  0  0  0
    8.6761    1.1203    0.0000 C   0  0  0  0  0  0  0  0  0  0  0  0
    8.7529   -0.5203    0.0000 O   0  0  0  0  0  0  0  0  0  0  0  0
    5.7676    2.0620    0.0000 O   0  0  0  0  0  0  0  0  0  0  0  0
    4.3389    2.0919    0.0000 C   0  0  0  0  0  0  0  0  0  0  0  0
    9.1609    0.4529    0.0000 O   0  0  0  0  0  0  0  0  0  0  0  0
    9.0116    1.8740    0.0000 C   0  0  0  0  0  0  0  0  0  0  0  0
  1  2  2  0  0  0  0 
  2  3  1  0  0  0  0 
  2  4  1  0  0  0  0 
  5  3  1  1  0  0  0 
  4  6  1  0  0  0  0 
  5  7  1  0  0  0  0 
  5  8  1  0  0  0  0 
  6  9  1  0  0  0  0 
  7 10  2  0  0  0  0 
  7 11  1  0  0  0  0 
 12  8  1  0  0  0  0 
  9 13  1  0  0  0  0 
 14 10  1  0  0  0  0 
 15 12  1  0  0  0  0 
 12 16  1  1  0  0  0 
 14 17  1  6  0  0  0 
 18 15  1  0  0  0  0 
 19 15  1  0  0  0  0 
 15 20  1  1  0  0  0 
 16 21  1  0  0  0  0 
 22 17  1  1  0  0  0 
 18 23  1  6  0  0  0 
 18 24  1  0  0  0  0 
 19 25  1  6  0  0  0 
 26 19  1  0  0  0  0 
 21 27  1  0  0  0  0 
 25 28  1  0  0  0  0 
 26 29  1  1  0  0  0 
 27 30  2  0  0  0  0 
 27 31  1  0  0  0  0 
 28 32  2  0  0  0  0 
 28 33  1  0  0  0  0 
 12 14  1  0  0  0  0 
 18 22  1  0  0  0  0 
 22 26  1  0  0  0  0 
 23 24  1  0  0  0  0 
M  END
> <ID>
CHEBI:198076

> <NAME>
8-n-Pentanoylneosolaniol

$$$$

CDK     1028232201

 39 44  0  0  0  0  0  0  0  0999 V2000
    5.5734    0.8224    0.0000 O   0  0  0  0  0  0  0  0  0  0  0  0
    4.8111    1.1378    0.0000 C   0  0  0  0  0  0  0  0  0  0  0  0
    4.9718    1.9471    0.0000 O   0  0  0  0  0  0  0  0  0  0  0  0
    4.3529    0.4518    0.0000 C   0  0  0  0  0  0  0  0  0  0  0  0
    4.8771    2.8026    0.0000 C   0  0  0  0  0  0  0  0  0  0  0  0
    3.5723    0.0003    0.0000 C   0  0  0  0  0  0  0  0  0  0  0  0
    4.5346    3.3393    0.0000 C   0  0  1  0  0  0  0  0  0  0  0  0
    2.8578    0.4127    0.0000 C   0  0  1  0  0  0  0  0  0  0  0  0
    3.5726   -0.8247    0.0000 C   0  0  0  0  0  0  0  0  0  0  0  0
    3.4581    3.6596    0.0000 C   0  0  2  0  0  0  0  0  0  0  0  0
    5.1199    3.9644    0.0000 C   0  0  2  0  0  0  0  0  0  0  0  0
    4.6918    2.5002    0.0000 C   0  0  0  0  0  0  0  0  0  0  0  0
    2.8575    1.2377    0.0000 O   0  0  0  0  0  0  0  0  0  0  0  0
    2.1434    0.0000    0.0000 C   0  0  2  0  0  0  0  0  0  0  0  0
    2.8582   -1.2373    0.0000 C   0  0  0  0  0  0  0  0  0  0  0  0
    4.0799    4.2019    0.0000 C   0  0  1  0  0  0  0  0  0  0  0  0
    2.7503    4.0833    0.0000 C   0  0  2  0  0  0  0  0  0  0  0  0
    3.1344    2.9008    0.0000 C   0  0  0  0  0  0  0  0  0  0  0  0
    4.8669    4.7776    0.0000 O   0  0  0  0  0  0  0  0  0  0  0  0
    5.9092    3.7827    0.0000 C   0  0  0  0  0  0  0  0  0  0  0  0
    5.5901    2.3899    0.0000 C   0  0  0  0  0  0  0  0  0  0  0  0
    2.1436   -0.8250    0.0000 O   0  0  0  0  0  0  0  0  0  0  0  0
    1.4290   -0.4125    0.0000 C   0  0  0  0  0  0  0  0  0  0  0  0
    1.3626    0.4510    0.0000 C   0  0  0  0  0  0  0  0  0  0  0  0
    4.6715    3.7019    0.0000 O   0  0  0  0  0  0  0  0  0  0  0  0
    3.7563    4.9608    0.0000 C   0  0  2  0  0  0  0  0  0  0  0  0
    4.7908    4.3951    0.0000 C   0  0  0  0  0  0  0  0  0  0  0  0
    2.0477    3.8998    0.0000 O   0  0  0  0  0  0  0  0  0  0  0  0
    2.9346    4.8875    0.0000 C   0  0  0  0  0  0  0  0  0  0  0  0
    6.1518    2.9942    0.0000 C   0  0  0  0  0  0  0  0  0  0  0  0
    1.4290   -1.2375    0.0000 O   0  0  0  0  0  0  0  0  0  0  0  0
    0.7144    0.0000    0.0000 C   0  0  0  0  0  0  0  0  0  0  0  0
    0.9041    1.1368    0.0000 C   0  0  0  0  0  0  0  0  0  0  0  0
    1.3619    3.4412    0.0000 C   0  0  0  0  0  0  0  0  0  0  0  0
    6.9559    2.8099    0.0000 C   0  0  0  0  0  0  0  0  0  0  0  0
    0.0000   -0.4125    0.0000 O   0  0  0  0  0  0  0  0  0  0  0  0
    0.7430    1.9460    0.0000 C   0  0  0  0  0  0  0  0  0  0  0  0
    0.7784    4.0244    0.0000 O   0  0  0  0  0  0  0  0  0  0  0  0
    0.9037    2.7552    0.0000 C   0  0  0  0  0  0  0  0  0  0  0  0
  1  2  2  0  0  0  0 
  2  3  1  0  0  0  0 
  2  4  1  0  0  0  0 
  3  5  1  0  0  0  0 
  4  6  2  0  0  0  0 
  7  5  1  1  0  0  0 
  8  6  1  0  0  0  0 
  6  9  1  0  0  0  0 
 10  7  1  0  0  0  0 
 11  7  1  0  0  0  0 
  7 12  1  0  0  0  0 
  8 13  1  6  0  0  0 
 14  8  1  0  0  0  0 
  9 15  1  0  0  0  0 
 16 10  1  0  0  0  0 
 17 10  1  0  0  0  0 
 10 18  1  6  0  0  0 
 11 19  1  6  0  0  0 
 11 20  1  0  0  0  0 
 12 21  1  0  0  0  0 
 14 22  1  0  0  0  0 
 14 23  1  6  0  0  0 
 14 24  1  0  0  0  0 
 16 25  1  6  0  0  0 
 26 16  1  0  0  0  0 
 16 27  1  0  0  0  0 
 17 28  1  6  0  0  0 
 17 29  1  0  0  0  0 
 20 30  2  0  0  0  0 
 23 31  2  0  0  0  0 
 23 32  1  0  0  0  0 
 24 33  1  0  0  0  0 
 28 34  1  0  0  0  0 
 30 35  1  0  0  0  0 
 32 36  1  0  0  0  0 
 33 37  1  0  0  0  0 
 34 38  2  0  0  0  0 
 34 39  1  0  0  0  0 
 15 22  1  0  0  0  0 
 26 19  1  1  0  0  0 
 21 30  1  0  0  0  0 
 25 27  1  0  0  0  0 
 26 29  1  0  0  0  0 
 37 39  2  0  0  0  0 
M  END
> <ID>
CHEBI:198180

> <NAME>
14'-hydroxymytoxin B

$$$$

CDK     1028232201

 24 27  0  0  0  0  0  0  0  0999 V2000
    2.1434    0.0000    0.0000 O   0  0  0  0  0  0  0  0  0  0  0  0
    1.4290   -0.4125    0.0000 C   0  0  0  0  0  0  0  0  0  0  0  0
    0.7144    0.0000    0.0000 O   0  0  0  0  0  0  0  0  0  0  0  0
    1.4290   -1.2375    0.0000 C   0  0  0  0  0  0  0  0  0  0  0  0
    0.0000   -0.4125    0.0000 C   0  0  2  0  0  0  0  0  0  0  0  0
   -0.7144    0.0000    0.0000 C   0  0  0  0  0  0  0  0  0  0  0  0
    0.0000   -1.2375    0.0000 C   0  0  0  0  0  0  0  0  0  0  0  0
   -1.4290   -0.4125    0.0000 C   0  0  0  0  0  0  0  0  0  0  0  0
   -0.7144    0.8250    0.0000 C   0  0  0  0  0  0  0  0  0  0  0  0
   -0.6898   -1.6534    0.0000 C   0  0  1  0  0  0  0  0  0  0  0  0
   -1.4298   -1.2224    0.0000 C   0  0  2  0  0  0  0  0  0  0  0  0
   -0.7615   -2.7741    0.0000 C   0  0  2  0  0  0  0  0  0  0  0  0
   -0.0087   -2.0773    0.0000 C   0  0  0  0  0  0  0  0  0  0  0  0
   -2.1659   -1.6507    0.0000 O   0  0  0  0  0  0  0  0  0  0  0  0
   -1.4290   -2.2892    0.0000 C   0  0  2  0  0  0  0  0  0  0  0  0
   -1.0165   -3.5588    0.0000 C   0  0  2  0  0  0  0  0  0  0  0  0
    0.0505   -2.9202    0.0000 C   0  0  0  0  0  0  0  0  0  0  0  0
    0.7141   -1.6799    0.0000 O   0  0  0  0  0  0  0  0  0  0  0  0
   -2.0964   -2.7741    0.0000 C   0  0  1  0  0  0  0  0  0  0  0  0
   -1.0737   -1.6009    0.0000 O   0  0  0  0  0  0  0  0  0  0  0  0
   -1.7761   -1.6394    0.0000 C   0  0  0  0  0  0  0  0  0  0  0  0
   -0.5315   -4.2262    0.0000 O   0  0  0  0  0  0  0  0  0  0  0  0
   -1.8415   -3.5588    0.0000 C   0  0  2  0  0  0  0  0  0  0  0  0
   -2.3263   -4.2262    0.0000 O   0  0  0  0  0  0  0  0  0  0  0  0
  1  2  2  0  0  0  0 
  2  3  1  0  0  0  0 
  2  4  1  0  0  0  0 
  5  3  1  1  0  0  0 
  5  6  1  0  0  0  0 
  5  7  1  0  0  0  0 
  6  8  2  0  0  0  0 
  6  9  1  0  0  0  0 
 10  7  1  0  0  0  0 
 11  8  1  0  0  0  0 
 12 10  1  0  0  0  0 
 10 13  1  1  0  0  0 
 11 14  1  6  0  0  0 
 15 12  1  0  0  0  0 
 16 12  1  0  0  0  0 
 12 17  1  6  0  0  0 
 13 18  1  0  0  0  0 
 19 14  1  1  0  0  0 
 15 20  1  6  0  0  0 
 15 21  1  0  0  0  0 
 16 22  1  6  0  0  0 
 23 16  1  0  0  0  0 
 23 24  1  1  0  0  0 
 10 11  1  0  0  0  0 
 15 19  1  0  0  0  0 
 19 23  1  0  0  0  0 
 20 21  1  0  0  0  0 
M  END
> <ID>
CHEBI:198253

> <NAME>
8-acetoxy T-2 tetraol

$$$$

CDK     1028232201

 28 32  0  0  0  0  0  0  0  0999 V2000
    4.0366   -4.6285    0.0000 O   0  0  0  0  0  0  0  0  0  0  0  0
    3.3692   -4.1435    0.0000 C   0  0  0  0  0  0  0  0  0  0  0  0
    3.4554   -3.3231    0.0000 C   0  0  0  0  0  0  0  0  0  0  0  0
    2.6155   -4.4791    0.0000 C   0  0  0  0  0  0  0  0  0  0  0  0
    2.7880   -2.8381    0.0000 C   0  0  0  0  0  0  0  0  0  0  0  0
    4.2091   -2.9875    0.0000 C   0  0  0  0  0  0  0  0  0  0  0  0
    1.9481   -3.9942    0.0000 C   0  0  0  0  0  0  0  0  0  0  0  0
    2.5292   -5.2996    0.0000 C   0  0  0  0  0  0  0  0  0  0  0  0
    2.0343   -3.1737    0.0000 O   0  0  0  0  0  0  0  0  0  0  0  0
    2.8743   -2.0177    0.0000 C   0  0  0  0  0  0  0  0  0  0  0  0
    4.8766   -3.4724    0.0000 O   0  0  0  0  0  0  0  0  0  0  0  0
    4.2953   -2.1670    0.0000 C   0  0  0  0  0  0  0  0  0  0  0  0
    1.1944   -4.3298    0.0000 C   0  0  0  0  0  0  0  0  0  0  0  0
    3.1968   -5.7846    0.0000 O   0  0  0  0  0  0  0  0  0  0  0  0
    1.7756   -5.6352    0.0000 C   0  0  0  0  0  0  0  0  0  0  0  0
    3.6279   -1.6820    0.0000 C   0  0  0  0  0  0  0  0  0  0  0  0
    2.3222   -1.4045    0.0000 C   0  0  1  0  0  0  0  0  0  0  0  0
    5.6303   -3.1369    0.0000 C   0  0  0  0  0  0  0  0  0  0  0  0
    0.5269   -3.8448    0.0000 O   0  0  0  0  0  0  0  0  0  0  0  0
    1.1082   -5.1502    0.0000 C   0  0  0  0  0  0  0  0  0  0  0  0
    3.5417   -0.8616    0.0000 O   0  0  0  0  0  0  0  0  0  0  0  0
    2.7347   -0.6900    0.0000 C   0  0  1  0  0  0  0  0  0  0  0  0
    1.5152   -1.2330    0.0000 C   0  0  0  0  0  0  0  0  0  0  0  0
   -0.2268   -4.1803    0.0000 C   0  0  0  0  0  0  0  0  0  0  0  0
    2.1827   -0.0770    0.0000 O   0  0  0  0  0  0  0  0  0  0  0  0
    1.4290   -0.4125    0.0000 C   0  0  2  0  0  0  0  0  0  0  0  0
    0.7145    0.0000    0.0000 O   0  0  0  0  0  0  0  0  0  0  0  0
    0.0000   -0.4125    0.0000 C   0  0  0  0  0  0  0  0  0  0  0  0
  1  2  2  0  0  0  0 
  2  3  1  0  0  0  0 
  2  4  1  0  0  0  0 
  3  5  2  0  0  0  0 
  3  6  1  0  0  0  0 
  4  7  2  0  0  0  0 
  4  8  1  0  0  0  0 
  5  9  1  0  0  0  0 
  5 10  1  0  0  0  0 
  6 11  1  0  0  0  0 
  6 12  2  0  0  0  0 
  7 13  1  0  0  0  0 
  8 14  1  0  0  0  0 
  8 15  2  0  0  0  0 
 10 16  2  0  0  0  0 
 17 10  1  0  0  0  0 
 11 18  1  0  0  0  0 
 13 19  1  0  0  0  0 
 13 20  2  0  0  0  0 
 16 21  1  0  0  0  0 
 22 17  1  0  0  0  0 
 17 23  1  6  0  0  0 
 19 24  1  0  0  0  0 
 22 25  1  6  0  0  0 
 26 23  1  0  0  0  0 
 26 27  1  1  0  0  0 
 27 28  1  0  0  0  0 
  7  9  1  0  0  0  0 
 12 16  1  0  0  0  0 
 15 20  1  0  0  0  0 
 21 22  1  0  0  0  0 
 25 26  1  0  0  0  0 
M  END
> <ID>
CHEBI:198375

> <NAME>
Oxisterigmatocystin B

$$$$

CDK     1028232201

 41 46  0  0  0  0  0  0  0  0999 V2000
    0.8469   -0.5909    0.0000 O   0  0  0  0  0  0  0  0  0  0  0  0
    0.8399    0.2341    0.0000 C   0  0  0  0  0  0  0  0  0  0  0  0
    1.6512    0.3843    0.0000 O   0  0  0  0  0  0  0  0  0  0  0  0
    0.0263    0.3704    0.0000 C   0  0  0  0  0  0  0  0  0  0  0  0
    2.4455    0.7365    0.0000 C   0  0  0  0  0  0  0  0  0  0  0  0
   -0.6917    0.7769    0.0000 C   0  0  0  0  0  0  0  0  0  0  0  0
    2.8331    1.2409    0.0000 C   0  0  1  0  0  0  0  0  0  0  0  0
   -1.2273    1.4043    0.0000 C   0  0  0  0  0  0  0  0  0  0  0  0
   -1.2165    0.1404    0.0000 C   0  0  0  0  0  0  0  0  0  0  0  0
    2.9049    2.3616    0.0000 C   0  0  2  0  0  0  0  0  0  0  0  0
    3.5732    0.8099    0.0000 C   0  0  2  0  0  0  0  0  0  0  0  0
    2.0988    0.8797    0.0000 C   0  0  0  0  0  0  0  0  0  0  0  0
   -1.6044    2.3390    0.0000 C   0  0  1  0  0  0  0  0  0  0  0  0
    3.5723    1.8767    0.0000 C   0  0  0  0  0  0  0  0  0  0  0  0
    3.1598    3.1463    0.0000 C   0  0  2  0  0  0  0  0  0  0  0  0
    2.0929    2.5077    0.0000 C   0  0  0  0  0  0  0  0  0  0  0  0
    4.3093    1.2382    0.0000 O   0  0  0  0  0  0  0  0  0  0  0  0
    3.5723    0.0000    0.0000 C   0  0  0  0  0  0  0  0  0  0  0  0
    2.1434    0.0000    0.0000 C   0  0  1  0  0  0  0  0  0  0  0  0
   -1.0158    2.9171    0.0000 O   0  0  0  0  0  0  0  0  0  0  0  0
   -2.3361    2.7201    0.0000 O   0  0  0  0  0  0  0  0  0  0  0  0
    3.2172    1.1884    0.0000 O   0  0  0  0  0  0  0  0  0  0  0  0
    4.2398    2.3616    0.0000 C   0  0  2  0  0  0  0  0  0  0  0  0
    3.9194    1.2269    0.0000 C   0  0  0  0  0  0  0  0  0  0  0  0
    2.8669    3.8147    0.0000 O   0  0  0  0  0  0  0  0  0  0  0  0
    3.9848    3.1463    0.0000 C   0  0  0  0  0  0  0  0  0  0  0  0
    2.8579   -0.4125    0.0000 C   0  0  0  0  0  0  0  0  0  0  0  0
    1.4290   -0.4125    0.0000 O   0  0  0  0  0  0  0  0  0  0  0  0
   -1.3838    3.6556    0.0000 C   0  0  2  0  0  0  0  0  0  0  0  0
   -2.1997    3.5338    0.0000 C   0  0  2  0  0  0  0  0  0  0  0  0
    2.3312    4.4421    0.0000 C   0  0  0  0  0  0  0  0  0  0  0  0
    2.8579   -1.2375    0.0000 C   0  0  0  0  0  0  0  0  0  0  0  0
    1.4290   -1.2375    0.0000 C   0  0  0  0  0  0  0  0  0  0  0  0
   -0.7225    4.4162    0.0000 C   0  0  0  0  0  0  0  0  0  0  0  0
   -2.7779    4.1224    0.0000 C   0  0  0  0  0  0  0  0  0  0  0  0
    2.8562    5.0786    0.0000 O   0  0  0  0  0  0  0  0  0  0  0  0
    1.6133    4.8486    0.0000 C   0  0  0  0  0  0  0  0  0  0  0  0
    2.1434   -1.6500    0.0000 O   0  0  0  0  0  0  0  0  0  0  0  0
    0.7144   -1.6500    0.0000 C   0  0  0  0  0  0  0  0  0  0  0  0
   -0.0116    4.8347    0.0000 C   0  0  0  0  0  0  0  0  0  0  0  0
    0.7996    4.9849    0.0000 C   0  0  0  0  0  0  0  0  0  0  0  0
  1  2  2  0  0  0  0 
  2  3  1  0  0  0  0 
  2  4  1  0  0  0  0 
  3  5  1  0  0  0  0 
  4  6  2  0  0  0  0 
  7  5  1  1  0  0  0 
  6  8  1  0  0  0  0 
  6  9  1  0  0  0  0 
 10  7  1  0  0  0  0 
 11  7  1  0  0  0  0 
  7 12  1  0  0  0  0 
 13  8  1  0  0  0  0 
 10 14  1  0  0  0  0 
 15 10  1  0  0  0  0 
 10 16  1  6  0  0  0 
 11 17  1  6  0  0  0 
 11 18  1  0  0  0  0 
 19 12  1  0  0  0  0 
 13 20  1  6  0  0  0 
 13 21  1  0  0  0  0 
 14 22  1  0  0  0  0 
 23 14  1  0  0  0  0 
 14 24  1  0  0  0  0 
 15 25  1  6  0  0  0 
 15 26  1  0  0  0  0 
 18 27  2  0  0  0  0 
 19 28  1  1  0  0  0 
 29 20  1  6  0  0  0 
 30 21  1  0  0  0  0 
 25 31  1  0  0  0  0 
 27 32  1  0  0  0  0 
 28 33  1  0  0  0  0 
 29 34  1  0  0  0  0 
 30 35  1  1  0  0  0 
 31 36  2  0  0  0  0 
 31 37  1  0  0  0  0 
 33 38  2  0  0  0  0 
 33 39  1  0  0  0  0 
 34 40  2  0  0  0  0 
 37 41  2  0  0  0  0 
 23 17  1  1  0  0  0 
 19 27  1  0  0  0  0 
 22 24  1  0  0  0  0 
 23 26  1  0  0  0  0 
 29 30  1  0  0  0  0 
 40 41  1  0  0  0  0 
M  END
> <ID>
CHEBI:198985

> <NAME>
8-Acetoxyroridin H

$$$$

CDK     1028232202

 38 43  0  0  0  0  0  0  0  0999 V2000
    5.2029   -1.1623    0.0000 O   0  0  0  0  0  0  0  0  0  0  0  0
    5.4759   -1.9408    0.0000 C   0  0  0  0  0  0  0  0  0  0  0  0
    4.9382   -2.5665    0.0000 O   0  0  0  0  0  0  0  0  0  0  0  0
    6.2867   -2.0936    0.0000 C   0  0  0  0  0  0  0  0  0  0  0  0
    4.3600   -2.4534    0.0000 C   0  0  1  0  0  0  0  0  0  0  0  0
    6.8243   -1.4679    0.0000 C   0  0  0  0  0  0  0  0  0  0  0  0
    3.8079   -1.8403    0.0000 C   0  0  2  0  0  0  0  0  0  0  0  0
    3.9475   -3.1678    0.0000 C   0  0  0  0  0  0  0  0  0  0  0  0
    6.5513   -0.6894    0.0000 C   0  0  0  0  0  0  0  0  0  0  0  0
    2.8731   -1.2178    0.0000 C   0  0  1  0  0  0  0  0  0  0  0  0
    3.0542   -2.1759    0.0000 C   0  0  2  0  0  0  0  0  0  0  0  0
    4.3404   -1.2101    0.0000 C   0  0  0  0  0  0  0  0  0  0  0  0
    3.1404   -2.9963    0.0000 C   0  0  2  0  0  0  0  0  0  0  0  0
    7.0890   -0.0637    0.0000 C   0  0  0  0  0  0  0  0  0  0  0  0
    2.1277   -1.6418    0.0000 C   0  0  2  0  0  0  0  0  0  0  0  0
    2.6816   -0.7298    0.0000 C   0  0  0  0  0  0  0  0  0  0  0  0
    2.8063   -0.3463    0.0000 C   0  0  0  0  0  0  0  0  0  0  0  0
    2.6358   -1.5241    0.0000 O   0  0  0  0  0  0  0  0  0  0  0  0
    2.2770   -2.2054    0.0000 C   0  0  0  0  0  0  0  0  0  0  0  0
    2.1186   -2.5250    0.0000 O   0  0  0  0  0  0  0  0  0  0  0  0
    6.8160    0.7149    0.0000 C   0  0  0  0  0  0  0  0  0  0  0  0
    1.4290   -1.2375    0.0000 C   0  0  0  0  0  0  0  0  0  0  0  0
    3.3084   -0.0781    0.0000 O   0  0  0  0  0  0  0  0  0  0  0  0
    2.1434    0.0000    0.0000 C   0  0  0  0  0  0  0  0  0  0  0  0
    7.3537    1.3405    0.0000 O   0  0  0  0  0  0  0  0  0  0  0  0
    6.0053    0.8677    0.0000 O   0  0  0  0  0  0  0  0  0  0  0  0
    1.4290   -0.4125    0.0000 C   0  0  0  0  0  0  0  0  0  0  0  0
    3.0354    0.7003    0.0000 C   0  0  0  0  0  0  0  0  0  0  0  0
    5.7323    1.6462    0.0000 C   0  0  0  0  0  0  0  0  0  0  0  0
    0.7144    0.0000    0.0000 C   0  0  0  0  0  0  0  0  0  0  0  0
    2.2247    0.8532    0.0000 O   0  0  0  0  0  0  0  0  0  0  0  0
    3.5731    1.3261    0.0000 C   0  0  0  0  0  0  0  0  0  0  0  0
    4.9215    1.7990    0.0000 C   0  0  0  0  0  0  0  0  0  0  0  0
    0.7144    0.8250    0.0000 O   0  0  0  0  0  0  0  0  0  0  0  0
    0.0000   -0.4125    0.0000 O   0  0  0  0  0  0  0  0  0  0  0  0
    3.8461    0.5476    0.0000 O   0  0  0  0  0  0  0  0  0  0  0  0
    4.3838    1.1732    0.0000 C   0  0  0  0  0  0  0  0  0  0  0  0
    5.0095    0.6356    0.0000 C   0  0  0  0  0  0  0  0  0  0  0  0
  1  2  2  0  0  0  0 
  2  3  1  0  0  0  0 
  2  4  1  0  0  0  0 
  5  3  1  6  0  0  0 
  4  6  2  0  0  0  0 
  7  5  1  0  0  0  0 
  5  8  1  0  0  0  0 
  6  9  1  0  0  0  0 
 10  7  1  0  0  0  0 
 11  7  1  0  0  0  0 
  7 12  1  6  0  0  0 
 13  8  1  0  0  0  0 
  9 14  2  0  0  0  0 
 15 10  1  0  0  0  0 
 10 16  1  1  0  0  0 
 10 17  1  0  0  0  0 
 11 18  1  6  0  0  0 
 11 19  1  0  0  0  0 
 13 20  1  1  0  0  0 
 14 21  1  0  0  0  0 
 15 22  1  0  0  0  0 
 16 23  1  0  0  0  0 
 17 24  1  0  0  0  0 
 21 25  2  0  0  0  0 
 21 26  1  0  0  0  0 
 22 27  2  0  0  0  0 
 23 28  1  0  0  0  0 
 26 29  1  0  0  0  0 
 27 30  1  0  0  0  0 
 28 31  2  0  0  0  0 
 28 32  1  0  0  0  0 
 29 33  1  0  0  0  0 
 30 34  2  0  0  0  0 
 30 35  1  0  0  0  0 
 32 36  1  0  0  0  0 
 32 37  1  0  0  0  0 
 37 38  1  0  0  0  0 
 11 13  1  0  0  0  0 
 15 20  1  6  0  0  0 
 18 19  1  0  0  0  0 
 24 27  1  0  0  0  0 
 33 37  1  0  0  0  0 
 36 37  1  0  0  0  0 
M  END
> <ID>
CHEBI:199397

> <NAME>
Verrucarin Z

$$$$

CDK     1028232202

 40 46  0  0  0  0  0  0  0  0999 V2000
    1.6202    3.2307    0.0000 O   0  0  0  0  0  0  0  0  0  0  0  0
    2.1579    3.8564    0.0000 C   0  0  0  0  0  0  0  0  0  0  0  0
    2.9687    3.7036    0.0000 O   0  0  0  0  0  0  0  0  0  0  0  0
    1.8849    4.6350    0.0000 C   0  0  0  0  0  0  0  0  0  0  0  0
    3.1599    3.1463    0.0000 C   0  0  1  0  0  0  0  0  0  0  0  0
    1.0742    4.7878    0.0000 C   0  0  0  0  0  0  0  0  0  0  0  0
    2.9050    2.3616    0.0000 C   0  0  2  0  0  0  0  0  0  0  0  0
    3.9849    3.1463    0.0000 C   0  0  0  0  0  0  0  0  0  0  0  0
    0.5365    4.1621    0.0000 C   0  0  0  0  0  0  0  0  0  0  0  0
    2.8332    1.2409    0.0000 C   0  0  1  0  0  0  0  0  0  0  0  0
    3.5724    1.8768    0.0000 C   0  0  0  0  0  0  0  0  0  0  0  0
    2.0930    2.5077    0.0000 C   0  0  0  0  0  0  0  0  0  0  0  0
    4.2398    2.3616    0.0000 C   0  0  0  0  0  0  0  0  0  0  0  0
    0.8095    3.3835    0.0000 C   0  0  0  0  0  0  0  0  0  0  0  0
    3.5732    0.8099    0.0000 C   0  0  0  0  0  0  0  0  0  0  0  0
    2.5064    0.8310    0.0000 C   0  0  0  0  0  0  0  0  0  0  0  0
    2.1119    0.7473    0.0000 C   0  0  0  0  0  0  0  0  0  0  0  0
    3.2172    1.1885    0.0000 O   0  0  0  0  0  0  0  0  0  0  0  0
    3.9195    1.2268    0.0000 C   0  0  0  0  0  0  0  0  0  0  0  0
    4.3093    1.2382    0.0000 O   0  0  0  0  0  0  0  0  0  0  0  0
    0.1940    2.7676    0.0000 C   0  0  0  0  0  0  0  0  0  0  0  0
    3.5724    0.0000    0.0000 C   0  0  0  0  0  0  0  0  0  0  0  0
    1.6286    1.0480    0.0000 O   0  0  0  0  0  0  0  0  0  0  0  0
    2.1434    0.0000    0.0000 C   0  0  1  0  0  0  0  0  0  0  0  0
   -0.6309    2.7834    0.0000 O   0  0  0  0  0  0  0  0  0  0  0  0
    0.5927    2.0453    0.0000 C   0  0  0  0  0  0  0  0  0  0  0  0
    2.8579   -0.4125    0.0000 C   0  0  0  0  0  0  0  0  0  0  0  0
    1.0909    0.4223    0.0000 C   0  0  0  0  0  0  0  0  0  0  0  0
    1.4659   -0.4883    0.0000 O   0  0  0  0  0  0  0  0  0  0  0  0
   -1.0570    2.0770    0.0000 C   0  0  0  0  0  0  0  0  0  0  0  0
    1.4175    2.0295    0.0000 O   0  0  0  0  0  0  0  0  0  0  0  0
    0.1666    1.3389    0.0000 C   0  0  1  0  0  0  0  0  0  0  0  0
    2.8579   -1.2375    0.0000 C   0  0  0  0  0  0  0  0  0  0  0  0
    1.3220   -0.1933    0.0000 O   0  0  0  0  0  0  0  0  0  0  0  0
    0.1507    0.5141    0.0000 C   0  0  2  0  0  0  0  0  0  0  0  0
    1.4289   -1.2375    0.0000 C   0  0  0  0  0  0  0  0  0  0  0  0
   -0.6583    1.3547    0.0000 C   0  0  0  0  0  0  0  0  0  0  0  0
    0.8730    0.9128    0.0000 O   0  0  0  0  0  0  0  0  0  0  0  0
    2.1434   -1.6500    0.0000 O   0  0  0  0  0  0  0  0  0  0  0  0
    0.7145   -1.6500    0.0000 C   0  0  0  0  0  0  0  0  0  0  0  0
  1  2  2  0  0  0  0 
  2  3  1  0  0  0  0 
  2  4  1  0  0  0  0 
  5  3  1  6  0  0  0 
  4  6  2  0  0  0  0 
  7  5  1  0  0  0  0 
  5  8  1  0  0  0  0 
  6  9  1  0  0  0  0 
 10  7  1  0  0  0  0 
  7 11  1  0  0  0  0 
  7 12  1  6  0  0  0 
  8 13  1  0  0  0  0 
  9 14  1  0  0  0  0 
 10 15  1  0  0  0  0 
 10 16  1  1  0  0  0 
 10 17  1  0  0  0  0 
 11 18  1  0  0  0  0 
 11 19  1  0  0  0  0 
 13 20  1  0  0  0  0 
 14 21  2  0  0  0  0 
 15 22  1  0  0  0  0 
 16 23  1  0  0  0  0 
 24 17  1  0  0  0  0 
 21 25  1  0  0  0  0 
 21 26  1  0  0  0  0 
 22 27  2  0  0  0  0 
 23 28  1  0  0  0  0 
 24 29  1  1  0  0  0 
 25 30  1  0  0  0  0 
 26 31  1  0  0  0  0 
 32 26  1  0  0  0  0 
 27 33  1  0  0  0  0 
 28 34  2  0  0  0  0 
 35 28  1  0  0  0  0 
 29 36  1  0  0  0  0 
 30 37  1  0  0  0  0 
 32 38  1  6  0  0  0 
 36 39  2  0  0  0  0 
 36 40  1  0  0  0  0 
 11 13  1  0  0  0  0 
 15 20  1  0  0  0  0 
 18 19  1  0  0  0  0 
 24 27  1  0  0  0  0 
 32 35  1  0  0  0  0 
 32 37  1  0  0  0  0 
 35 38  1  1  0  0  0 
M  END
> <ID>
CHEBI:199633

> <NAME>
Myrotoxin B

$$$$

CDK     1028232202

 46 50  0  0  0  0  0  0  0  0999 V2000
    5.8989   -6.8872    0.0000 O   0  0  0  0  0  0  0  0  0  0  0  0
    5.4139   -6.2196    0.0000 C   0  0  0  0  0  0  0  0  0  0  0  0
    4.5889   -6.2196    0.0000 O   0  0  0  0  0  0  0  0  0  0  0  0
    5.6689   -5.4351    0.0000 C   0  0  0  0  0  0  0  0  0  0  0  0
    4.3340   -5.4351    0.0000 C   0  0  0  0  0  0  0  0  0  0  0  0
    5.0014   -4.9501    0.0000 C   0  0  0  0  0  0  0  0  0  0  0  0
    5.0014   -4.1251    0.0000 C   0  0  0  0  0  0  0  0  0  0  0  0
    4.2870   -3.7126    0.0000 C   0  0  0  0  0  0  0  0  0  0  0  0
    4.2870   -2.8876    0.0000 O   0  0  0  0  0  0  0  0  0  0  0  0
    3.5724   -2.4751    0.0000 C   0  0  0  0  0  0  0  0  0  0  0  0
    3.5724   -1.6500    0.0000 C   0  0  0  0  0  0  0  0  0  0  0  0
    2.8579   -2.8876    0.0000 C   0  0  0  0  0  0  0  0  0  0  0  0
    2.8579   -1.2375    0.0000 C   0  0  0  0  0  0  0  0  0  0  0  0
    2.8579   -3.7126    0.0000 O   0  0  0  0  0  0  0  0  0  0  0  0
    2.1435   -2.4751    0.0000 C   0  0  0  0  0  0  0  0  0  0  0  0
    2.8579   -0.4125    0.0000 C   0  0  0  0  0  0  0  0  0  0  0  0
    2.1435    0.0000    0.0000 C   0  0  0  0  0  0  0  0  0  0  0  0
    1.4290   -0.4125    0.0000 C   0  0  0  0  0  0  0  0  0  0  0  0
    1.4290   -1.2375    0.0000 O   0  0  0  0  0  0  0  0  0  0  0  0
    0.7145    0.0000    0.0000 O   0  0  0  0  0  0  0  0  0  0  0  0
    0.0000   -0.4125    0.0000 C   0  0  1  0  0  0  0  0  0  0  0  0
   -0.7537   -0.0770    0.0000 C   0  0  2  0  0  0  0  0  0  0  0  0
   -0.0862   -1.2330    0.0000 C   0  0  0  0  0  0  0  0  0  0  0  0
   -1.8608    0.1115    0.0000 C   0  0  2  0  0  0  0  0  0  0  0  0
   -1.3058   -0.6900    0.0000 C   0  0  2  0  0  0  0  0  0  0  0  0
   -0.5236    0.7153    0.0000 C   0  0  0  0  0  0  0  0  0  0  0  0
   -0.8932   -1.4045    0.0000 C   0  0  2  0  0  0  0  0  0  0  0  0
   -2.3668   -0.5793    0.0000 C   0  0  2  0  0  0  0  0  0  0  0  0
   -2.2024    0.8410    0.0000 C   0  0  0  0  0  0  0  0  0  0  0  0
   -1.3680    0.7445    0.0000 C   0  0  0  0  0  0  0  0  0  0  0  0
   -1.9531   -0.2648    0.0000 O   0  0  0  0  0  0  0  0  0  0  0  0
   -1.9884   -0.9673    0.0000 C   0  0  0  0  0  0  0  0  0  0  0  0
   -2.0178   -1.3562    0.0000 O   0  0  0  0  0  0  0  0  0  0  0  0
   -3.1722   -0.4939    0.0000 C   0  0  0  0  0  0  0  0  0  0  0  0
   -3.0229    0.9272    0.0000 C   0  0  0  0  0  0  0  0  0  0  0  0
   -1.6877    1.5051    0.0000 O   0  0  0  0  0  0  0  0  0  0  0  0
   -3.5078    0.2598    0.0000 C   0  0  0  0  0  0  0  0  0  0  0  0
   -1.1889    2.1622    0.0000 C   0  0  0  0  0  0  0  0  0  0  0  0
   -4.3283    0.3460    0.0000 C   0  0  0  0  0  0  0  0  0  0  0  0
   -0.3704    2.0588    0.0000 O   0  0  0  0  0  0  0  0  0  0  0  0
   -1.5087    2.9228    0.0000 C   0  0  0  0  0  0  0  0  0  0  0  0
   -1.0099    3.5799    0.0000 C   0  0  0  0  0  0  0  0  0  0  0  0
   -1.3297    4.3405    0.0000 C   0  0  0  0  0  0  0  0  0  0  0  0
   -0.1914    3.4765    0.0000 C   0  0  0  0  0  0  0  0  0  0  0  0
   -0.8309    4.9976    0.0000 C   0  0  0  0  0  0  0  0  0  0  0  0
   -1.1506    5.7582    0.0000 O   0  0  0  0  0  0  0  0  0  0  0  0
  1  2  2  0  0  0  0 
  2  3  1  0  0  0  0 
  2  4  1  0  0  0  0 
  3  5  1  0  0  0  0 
  4  6  2  0  0  0  0 
  6  7  1  0  0  0  0 
  7  8  1  0  0  0  0 
  8  9  1  0  0  0  0 
  9 10  1  0  0  0  0 
 10 11  1  0  0  0  0 
 10 12  1  0  0  0  0 
 11 13  2  0  0  0  0 
 12 14  1  0  0  0  0 
 12 15  1  0  0  0  0 
 13 16  1  0  0  0  0 
 16 17  2  0  0  0  0 
 17 18  1  0  0  0  0 
 18 19  2  0  0  0  0 
 18 20  1  0  0  0  0 
 21 20  1  6  0  0  0 
 22 21  1  0  0  0  0 
 21 23  1  0  0  0  0 
 24 22  1  0  0  0  0 
 25 22  1  0  0  0  0 
 22 26  1  6  0  0  0 
 27 23  1  0  0  0  0 
 28 24  1  0  0  0  0 
 24 29  1  0  0  0  0 
 24 30  1  1  0  0  0 
 25 31  1  6  0  0  0 
 25 32  1  0  0  0  0 
 27 33  1  1  0  0  0 
 28 34  1  0  0  0  0 
 29 35  1  0  0  0  0 
 30 36  1  0  0  0  0 
 34 37  2  0  0  0  0 
 36 38  1  0  0  0  0 
 37 39  1  0  0  0  0 
 38 40  2  0  0  0  0 
 38 41  1  0  0  0  0 
 41 42  2  0  0  0  0 
 42 43  1  0  0  0  0 
 42 44  1  0  0  0  0 
 43 45  1  0  0  0  0 
 45 46  1  0  0  0  0 
  5  6  1  0  0  0  0 
 25 27  1  0  0  0  0 
 28 33  1  6  0  0  0 
 31 32  1  0  0  0  0 
 35 37  1  0  0  0  0 
M  END
> <ID>
CHEBI:199854

> <NAME>
Trichoverritone

$$$$

CDK     1028232202

 25 28  0  0  0  0  0  0  0  0999 V2000
    2.1435    0.8250    0.0000 O   0  0  0  0  0  0  0  0  0  0  0  0
    2.1435    0.0000    0.0000 C   0  0  0  0  0  0  0  0  0  0  0  0
    2.8579   -0.4125    0.0000 O   0  0  0  0  0  0  0  0  0  0  0  0
    1.4290   -0.4125    0.0000 C   0  0  0  0  0  0  0  0  0  0  0  0
    3.5724    0.0000    0.0000 C   0  0  1  0  0  0  0  0  0  0  0  0
    0.7145    0.0000    0.0000 C   0  0  0  0  0  0  0  0  0  0  0  0
    4.3261   -0.3355    0.0000 C   0  0  2  0  0  0  0  0  0  0  0  0
    3.6587    0.8205    0.0000 C   0  0  1  0  0  0  0  0  0  0  0  0
    0.7145    0.8250    0.0000 C   0  0  0  0  0  0  0  0  0  0  0  0
    5.4332   -0.5241    0.0000 C   0  0  2  0  0  0  0  0  0  0  0  0
    4.8782    0.2775    0.0000 C   0  0  2  0  0  0  0  0  0  0  0  0
    4.0960   -1.1278    0.0000 C   0  0  0  0  0  0  0  0  0  0  0  0
    3.0456    1.3726    0.0000 O   0  0  0  0  0  0  0  0  0  0  0  0
    4.4657    0.9920    0.0000 C   0  0  2  0  0  0  0  0  0  0  0  0
    5.9392    0.1668    0.0000 C   0  0  2  0  0  0  0  0  0  0  0  0
    5.7748   -1.2535    0.0000 C   0  0  0  0  0  0  0  0  0  0  0  0
    4.9405   -1.1570    0.0000 C   0  0  0  0  0  0  0  0  0  0  0  0
    5.5256   -0.1477    0.0000 O   0  0  0  0  0  0  0  0  0  0  0  0
    5.5608    0.5548    0.0000 C   0  0  0  0  0  0  0  0  0  0  0  0
    5.5903    0.9437    0.0000 O   0  0  0  0  0  0  0  0  0  0  0  0
    6.7447    0.0813    0.0000 C   0  0  0  0  0  0  0  0  0  0  0  0
    6.5953   -1.3397    0.0000 C   0  0  1  0  0  0  0  0  0  0  0  0
    7.0802   -0.6723    0.0000 C   0  0  0  0  0  0  0  0  0  0  0  0
    6.9308   -2.0935    0.0000 O   0  0  0  0  0  0  0  0  0  0  0  0
    7.9007   -0.7585    0.0000 C   0  0  0  0  0  0  0  0  0  0  0  0
  1  2  2  0  0  0  0 
  2  3  1  0  0  0  0 
  2  4  1  0  0  0  0 
  5  3  1  6  0  0  0 
  4  6  2  0  0  0  0 
  7  5  1  0  0  0  0 
  8  5  1  0  0  0  0 
  6  9  1  0  0  0  0 
 10  7  1  0  0  0  0 
 11  7  1  0  0  0  0 
  7 12  1  6  0  0  0 
  8 13  1  1  0  0  0 
 14  8  1  0  0  0  0 
 15 10  1  0  0  0  0 
 10 16  1  0  0  0  0 
 10 17  1  1  0  0  0 
 11 18  1  6  0  0  0 
 11 19  1  0  0  0  0 
 14 20  1  1  0  0  0 
 15 21  1  0  0  0  0 
 22 16  1  0  0  0  0 
 21 23  2  0  0  0  0 
 22 24  1  1  0  0  0 
 23 25  1  0  0  0  0 
 11 14  1  0  0  0  0 
 15 20  1  6  0  0  0 
 18 19  1  0  0  0  0 
 22 23  1  0  0  0  0 
M  END
> <ID>
CHEBI:200050

> <NAME>
Trichothecinol C

$$$$

CDK     1028232203

 29 32  0  0  0  0  0  0  0  0999 V2000
    5.0014    0.8250    0.0000 O   0  0  0  0  0  0  0  0  0  0  0  0
    5.0014    0.0000    0.0000 C   0  0  0  0  0  0  0  0  0  0  0  0
    5.7159   -0.4125    0.0000 O   0  0  0  0  0  0  0  0  0  0  0  0
    4.2870   -0.4125    0.0000 C   0  0  0  0  0  0  0  0  0  0  0  0
    6.4304    0.0000    0.0000 C   0  0  1  0  0  0  0  0  0  0  0  0
    3.5724    0.0000    0.0000 C   0  0  0  0  0  0  0  0  0  0  0  0
    7.1841   -0.3355    0.0000 C   0  0  2  0  0  0  0  0  0  0  0  0
    6.5167    0.8205    0.0000 C   0  0  0  0  0  0  0  0  0  0  0  0
    3.5724    0.8250    0.0000 C   0  0  0  0  0  0  0  0  0  0  0  0
    8.2912   -0.5241    0.0000 C   0  0  2  0  0  0  0  0  0  0  0  0
    7.7361    0.2775    0.0000 C   0  0  0  0  0  0  0  0  0  0  0  0
    6.9539   -1.1278    0.0000 C   0  0  0  0  0  0  0  0  0  0  0  0
    7.3236    0.9920    0.0000 C   0  0  2  0  0  0  0  0  0  0  0  0
    2.8579    1.2375    0.0000 C   0  0  0  0  0  0  0  0  0  0  0  0
    8.7972    0.1668    0.0000 C   0  0  2  0  0  0  0  0  0  0  0  0
    8.6327   -1.2535    0.0000 C   0  0  0  0  0  0  0  0  0  0  0  0
    7.7984   -1.1570    0.0000 C   0  0  0  0  0  0  0  0  0  0  0  0
    8.3835   -0.1477    0.0000 O   0  0  0  0  0  0  0  0  0  0  0  0
    8.4187    0.5548    0.0000 C   0  0  0  0  0  0  0  0  0  0  0  0
    8.4483    0.9437    0.0000 O   0  0  0  0  0  0  0  0  0  0  0  0
    2.8579    2.0625    0.0000 C   0  0  2  0  0  0  0  0  0  0  0  0
    9.6026    0.0813    0.0000 C   0  0  0  0  0  0  0  0  0  0  0  0
    9.4532   -1.3397    0.0000 C   0  0  0  0  0  0  0  0  0  0  0  0
    3.5724    2.4751    0.0000 O   0  0  0  0  0  0  0  0  0  0  0  0
    2.1435    2.4751    0.0000 C   0  0  1  0  0  0  0  0  0  0  0  0
    9.9382   -0.6723    0.0000 C   0  0  0  0  0  0  0  0  0  0  0  0
    1.4290    2.0625    0.0000 O   0  0  0  0  0  0  0  0  0  0  0  0
    2.1435    3.3001    0.0000 C   0  0  0  0  0  0  0  0  0  0  0  0
   10.7586   -0.7585    0.0000 C   0  0  0  0  0  0  0  0  0  0  0  0
  1  2  2  0  0  0  0 
  2  3  1  0  0  0  0 
  2  4  1  0  0  0  0 
  5  3  1  6  0  0  0 
  4  6  2  0  0  0  0 
  7  5  1  0  0  0  0 
  5  8  1  0  0  0  0 
  6  9  1  0  0  0  0 
 10  7  1  0  0  0  0 
  7 11  1  0  0  0  0 
  7 12  1  6  0  0  0 
 13  8  1  0  0  0  0 
  9 14  2  0  0  0  0 
 15 10  1  0  0  0  0 
 10 16  1  0  0  0  0 
 10 17  1  1  0  0  0 
 11 18  1  0  0  0  0 
 11 19  1  0  0  0  0 
 13 20  1  1  0  0  0 
 21 14  1  0  0  0  0 
 15 22  1  0  0  0  0 
 16 23  1  0  0  0  0 
 21 24  1  1  0  0  0 
 25 21  1  0  0  0  0 
 22 26  2  0  0  0  0 
 25 27  1  1  0  0  0 
 25 28  1  0  0  0  0 
 26 29  1  0  0  0  0 
 11 13  1  0  0  0  0 
 15 20  1  6  0  0  0 
 18 19  1  0  0  0  0 
 23 26  1  0  0  0  0 
M  END
> <ID>
CHEBI:200247

> <NAME>
Trichodermadienediol A

$$$$

CDK     1028232203

 36 40  0  0  0  0  0  0  0  0999 V2000
    1.2100   -3.0696    0.0000 O   0  0  0  0  0  0  0  0  0  0  0  0
    0.5806   -2.6522    0.0000 C   0  0  0  0  0  0  0  0  0  0  0  0
    0.5875   -1.8272    0.0000 O   0  0  0  0  0  0  0  0  0  0  0  0
   -0.1373   -3.0587    0.0000 C   0  0  0  0  0  0  0  0  0  0  0  0
    1.3980   -1.4264    0.0000 C   0  0  0  0  0  0  0  0  0  0  0  0
   -0.8483   -2.6403    0.0000 C   0  0  0  0  0  0  0  0  0  0  0  0
    1.3831   -0.9024    0.0000 C   0  0  1  0  0  0  0  0  0  0  0  0
   -1.5662   -3.0468    0.0000 C   0  0  0  0  0  0  0  0  0  0  0  0
   -0.8415   -1.8153    0.0000 C   0  0  0  0  0  0  0  0  0  0  0  0
    0.7145    0.0000    0.0000 C   0  0  2  0  0  0  0  0  0  0  0  0
    2.2264   -0.7539    0.0000 C   0  0  2  0  0  0  0  0  0  0  0  0
    1.1507   -1.7450    0.0000 C   0  0  0  0  0  0  0  0  0  0  0  0
   -2.2772   -2.6284    0.0000 C   0  0  0  0  0  0  0  0  0  0  0  0
    1.5373    0.0604    0.0000 C   0  0  0  0  0  0  0  0  0  0  0  0
    0.4028    0.7639    0.0000 C   0  0  2  0  0  0  0  0  0  0  0  0
    0.0000   -0.4125    0.0000 C   0  0  0  0  0  0  0  0  0  0  0  0
    2.5123    0.0483    0.0000 O   0  0  0  0  0  0  0  0  0  0  0  0
    2.7486   -1.3731    0.0000 C   0  0  0  0  0  0  0  0  0  0  0  0
    1.6571   -2.2954    0.0000 C   0  0  1  0  0  0  0  0  0  0  0  0
   -2.2704   -1.8035    0.0000 O   0  0  0  0  0  0  0  0  0  0  0  0
    1.7102   -0.6946    0.0000 O   0  0  0  0  0  0  0  0  0  0  0  0
    1.7341    0.8616    0.0000 C   0  0  2  0  0  0  0  0  0  0  0  0
    2.2218   -0.2120    0.0000 C   0  0  0  0  0  0  0  0  0  0  0  0
   -0.1030    1.0662    0.0000 O   0  0  0  0  0  0  0  0  0  0  0  0
    1.0329    1.2963    0.0000 C   0  0  0  0  0  0  0  0  0  0  0  0
    2.4691   -2.1493    0.0000 C   0  0  0  0  0  0  0  0  0  0  0  0
    1.5409   -3.0735    0.0000 O   0  0  0  0  0  0  0  0  0  0  0  0
   -2.9814   -1.3850    0.0000 C   0  0  0  0  0  0  0  0  0  0  0  0
   -0.8209    0.6596    0.0000 C   0  0  0  0  0  0  0  0  0  0  0  0
    3.0015   -2.7795    0.0000 C   0  0  0  0  0  0  0  0  0  0  0  0
   -3.6993   -1.7915    0.0000 O   0  0  0  0  0  0  0  0  0  0  0  0
   -2.9745   -0.5600    0.0000 C   0  0  0  0  0  0  0  0  0  0  0  0
   -0.8277   -0.1654    0.0000 O   0  0  0  0  0  0  0  0  0  0  0  0
   -1.5319    1.0781    0.0000 C   0  0  0  0  0  0  0  0  0  0  0  0
   -2.2566   -0.1535    0.0000 C   0  0  0  0  0  0  0  0  0  0  0  0
   -2.2498    0.6715    0.0000 C   0  0  0  0  0  0  0  0  0  0  0  0
  1  2  2  0  0  0  0 
  2  3  1  0  0  0  0 
  2  4  1  0  0  0  0 
  3  5  1  0  0  0  0 
  4  6  2  0  0  0  0 
  7  5  1  1  0  0  0 
  6  8  1  0  0  0  0 
  6  9  1  0  0  0  0 
 10  7  1  0  0  0  0 
 11  7  1  0  0  0  0 
  7 12  1  0  0  0  0 
  8 13  1  0  0  0  0 
 10 14  1  0  0  0  0 
 15 10  1  0  0  0  0 
 10 16  1  6  0  0  0 
 11 17  1  6  0  0  0 
 11 18  1  0  0  0  0 
 19 12  1  0  0  0  0 
 13 20  1  0  0  0  0 
 14 21  1  0  0  0  0 
 22 14  1  0  0  0  0 
 14 23  1  0  0  0  0 
 15 24  1  6  0  0  0 
 15 25  1  0  0  0  0 
 18 26  2  0  0  0  0 
 19 27  1  1  0  0  0 
 20 28  1  0  0  0  0 
 24 29  1  0  0  0  0 
 26 30  1  0  0  0  0 
 28 31  2  0  0  0  0 
 28 32  1  0  0  0  0 
 29 33  2  0  0  0  0 
 29 34  1  0  0  0  0 
 32 35  2  0  0  0  0 
 34 36  2  0  0  0  0 
 22 17  1  1  0  0  0 
 19 26  1  0  0  0  0 
 21 23  1  0  0  0  0 
 22 25  1  0  0  0  0 
 35 36  1  0  0  0  0 
M  END
> <ID>
CHEBI:200250

> <NAME>
Verrucarin L

$$$$

CDK     1028232203

 19 22  0  0  0  0  0  0  0  0999 V2000
    0.7145    0.0000    0.0000 O   0  0  0  0  0  0  0  0  0  0  0  0
    0.0000   -0.4125    0.0000 C   0  0  0  0  0  0  0  0  0  0  0  0
   -0.7537   -0.0770    0.0000 C   0  0  0  0  0  0  0  0  0  0  0  0
   -0.0862   -1.2330    0.0000 C   0  0  0  0  0  0  0  0  0  0  0  0
   -1.8608    0.1115    0.0000 C   0  0  2  0  0  0  0  0  0  0  0  0
   -1.3058   -0.6900    0.0000 C   0  0  1  0  0  0  0  0  0  0  0  0
   -0.5236    0.7153    0.0000 C   0  0  0  0  0  0  0  0  0  0  0  0
   -0.8932   -1.4045    0.0000 C   0  0  2  0  0  0  0  0  0  0  0  0
   -2.3668   -0.5793    0.0000 C   0  0  2  0  0  0  0  0  0  0  0  0
   -2.2024    0.8410    0.0000 C   0  0  0  0  0  0  0  0  0  0  0  0
   -1.3680    0.7445    0.0000 C   0  0  0  0  0  0  0  0  0  0  0  0
   -1.9531   -0.2648    0.0000 O   0  0  0  0  0  0  0  0  0  0  0  0
   -1.9884   -0.9673    0.0000 C   0  0  0  0  0  0  0  0  0  0  0  0
   -2.0178   -1.3562    0.0000 O   0  0  0  0  0  0  0  0  0  0  0  0
   -3.1722   -0.4939    0.0000 C   0  0  0  0  0  0  0  0  0  0  0  0
   -3.0229    0.9272    0.0000 C   0  0  1  0  0  0  0  0  0  0  0  0
   -3.5078    0.2598    0.0000 C   0  0  0  0  0  0  0  0  0  0  0  0
   -3.3584    1.6810    0.0000 O   0  0  0  0  0  0  0  0  0  0  0  0
   -4.3283    0.3460    0.0000 C   0  0  0  0  0  0  0  0  0  0  0  0
  1  2  2  0  0  0  0 
  2  3  1  0  0  0  0 
  2  4  1  0  0  0  0 
  5  3  1  0  0  0  0 
  6  3  1  0  0  0  0 
  3  7  1  0  0  0  0 
  8  4  1  0  0  0  0 
  9  5  1  0  0  0  0 
  5 10  1  0  0  0  0 
  5 11  1  1  0  0  0 
  6 12  1  1  0  0  0 
  6 13  1  0  0  0  0 
  8 14  1  1  0  0  0 
  9 15  1  0  0  0  0 
 16 10  1  0  0  0  0 
 15 17  2  0  0  0  0 
 16 18  1  1  0  0  0 
 17 19  1  0  0  0  0 
  6  8  1  0  0  0  0 
  9 14  1  6  0  0  0 
 12 13  1  0  0  0  0 
 16 17  1  0  0  0  0 
M  END
> <ID>
CHEBI:200536

> <NAME>
Stachybotrichodermone A

$$$$

CDK     1028232203

 25 28  0  0  0  0  0  0  0  0999 V2000
    6.9308   -2.0935    0.0000 O   0  0  0  0  0  0  0  0  0  0  0  0
    6.5953   -1.3397    0.0000 C   0  0  0  0  0  0  0  0  0  0  0  0
    7.0802   -0.6723    0.0000 C   0  0  0  0  0  0  0  0  0  0  0  0
    5.7748   -1.2535    0.0000 C   0  0  0  0  0  0  0  0  0  0  0  0
    6.7447    0.0813    0.0000 C   0  0  0  0  0  0  0  0  0  0  0  0
    7.9007   -0.7585    0.0000 C   0  0  0  0  0  0  0  0  0  0  0  0
    5.4332   -0.5241    0.0000 C   0  0  1  0  0  0  0  0  0  0  0  0
    5.9392    0.1668    0.0000 C   0  0  2  0  0  0  0  0  0  0  0  0
    4.3261   -0.3355    0.0000 C   0  0  2  0  0  0  0  0  0  0  0  0
    4.9405   -1.1570    0.0000 C   0  0  0  0  0  0  0  0  0  0  0  0
    5.5903    0.9437    0.0000 O   0  0  0  0  0  0  0  0  0  0  0  0
    4.8782    0.2775    0.0000 C   0  0  2  0  0  0  0  0  0  0  0  0
    3.5724    0.0000    0.0000 C   0  0  2  0  0  0  0  0  0  0  0  0
    4.0960   -1.1278    0.0000 C   0  0  0  0  0  0  0  0  0  0  0  0
    4.4657    0.9920    0.0000 C   0  0  1  0  0  0  0  0  0  0  0  0
    5.5256   -0.1477    0.0000 O   0  0  0  0  0  0  0  0  0  0  0  0
    5.5608    0.5548    0.0000 C   0  0  0  0  0  0  0  0  0  0  0  0
    2.8579   -0.4125    0.0000 O   0  0  0  0  0  0  0  0  0  0  0  0
    3.6587    0.8205    0.0000 C   0  0  2  0  0  0  0  0  0  0  0  0
    2.1435    0.0000    0.0000 C   0  0  0  0  0  0  0  0  0  0  0  0
    3.0456    1.3726    0.0000 O   0  0  0  0  0  0  0  0  0  0  0  0
    2.1435    0.8250    0.0000 O   0  0  0  0  0  0  0  0  0  0  0  0
    1.4290   -0.4125    0.0000 C   0  0  0  0  0  0  0  0  0  0  0  0
    0.7145    0.0000    0.0000 C   0  0  0  0  0  0  0  0  0  0  0  0
    0.7145    0.8250    0.0000 C   0  0  0  0  0  0  0  0  0  0  0  0
  1  2  2  0  0  0  0 
  2  3  1  0  0  0  0 
  2  4  1  0  0  0  0 
  3  5  2  0  0  0  0 
  3  6  1  0  0  0  0 
  7  4  1  0  0  0  0 
  8  5  1  0  0  0  0 
  9  7  1  0  0  0  0 
  7 10  1  1  0  0  0 
  8 11  1  6  0  0  0 
 12  9  1  0  0  0  0 
 13  9  1  0  0  0  0 
  9 14  1  6  0  0  0 
 15 11  1  1  0  0  0 
 12 16  1  6  0  0  0 
 12 17  1  0  0  0  0 
 13 18  1  6  0  0  0 
 19 13  1  0  0  0  0 
 18 20  1  0  0  0  0 
 19 21  1  1  0  0  0 
 20 22  2  0  0  0  0 
 20 23  1  0  0  0  0 
 23 24  2  0  0  0  0 
 24 25  1  0  0  0  0 
  7  8  1  0  0  0  0 
 12 15  1  0  0  0  0 
 15 19  1  0  0  0  0 
 16 17  1  0  0  0  0 
M  END
> <ID>
CHEBI:200570

> <NAME>
Trichothecinol A

$$$$

CDK     1028232203

 30 33  0  0  0  0  0  0  0  0999 V2000
    5.0014    0.8250    0.0000 O   0  0  0  0  0  0  0  0  0  0  0  0
    5.0014    0.0000    0.0000 C   0  0  0  0  0  0  0  0  0  0  0  0
    5.7159   -0.4125    0.0000 O   0  0  0  0  0  0  0  0  0  0  0  0
    4.2870   -0.4125    0.0000 C   0  0  0  0  0  0  0  0  0  0  0  0
    6.4304    0.0000    0.0000 C   0  0  1  0  0  0  0  0  0  0  0  0
    3.5724    0.0000    0.0000 C   0  0  0  0  0  0  0  0  0  0  0  0
    7.1841   -0.3355    0.0000 C   0  0  2  0  0  0  0  0  0  0  0  0
    6.5167    0.8205    0.0000 C   0  0  0  0  0  0  0  0  0  0  0  0
    3.5724    0.8250    0.0000 C   0  0  0  0  0  0  0  0  0  0  0  0
    8.2912   -0.5241    0.0000 C   0  0  2  0  0  0  0  0  0  0  0  0
    7.7361    0.2775    0.0000 C   0  0  0  0  0  0  0  0  0  0  0  0
    6.9539   -1.1278    0.0000 C   0  0  0  0  0  0  0  0  0  0  0  0
    7.3236    0.9920    0.0000 C   0  0  2  0  0  0  0  0  0  0  0  0
    2.8579    1.2375    0.0000 C   0  0  0  0  0  0  0  0  0  0  0  0
    8.7972    0.1668    0.0000 C   0  0  2  0  0  0  0  0  0  0  0  0
    8.6327   -1.2535    0.0000 C   0  0  0  0  0  0  0  0  0  0  0  0
    7.7984   -1.1570    0.0000 C   0  0  0  0  0  0  0  0  0  0  0  0
    8.3835   -0.1477    0.0000 O   0  0  0  0  0  0  0  0  0  0  0  0
    8.4187    0.5548    0.0000 C   0  0  0  0  0  0  0  0  0  0  0  0
    8.4483    0.9437    0.0000 O   0  0  0  0  0  0  0  0  0  0  0  0
    2.8579    2.0625    0.0000 C   0  0  2  0  0  0  0  0  0  0  0  0
    9.6026    0.0813    0.0000 C   0  0  0  0  0  0  0  0  0  0  0  0
    9.4532   -1.3397    0.0000 C   0  0  0  0  0  0  0  0  0  0  0  0
    8.1181   -1.9176    0.0000 O   0  0  0  0  0  0  0  0  0  0  0  0
    3.5724    2.4751    0.0000 O   0  0  0  0  0  0  0  0  0  0  0  0
    2.1435    2.4751    0.0000 C   0  0  2  0  0  0  0  0  0  0  0  0
    9.9382   -0.6723    0.0000 C   0  0  0  0  0  0  0  0  0  0  0  0
    1.4290    2.0625    0.0000 O   0  0  0  0  0  0  0  0  0  0  0  0
    2.1435    3.3001    0.0000 C   0  0  0  0  0  0  0  0  0  0  0  0
   10.7586   -0.7585    0.0000 C   0  0  0  0  0  0  0  0  0  0  0  0
  1  2  2  0  0  0  0 
  2  3  1  0  0  0  0 
  2  4  1  0  0  0  0 
  5  3  1  6  0  0  0 
  4  6  2  0  0  0  0 
  7  5  1  0  0  0  0 
  5  8  1  0  0  0  0 
  6  9  1  0  0  0  0 
 10  7  1  0  0  0  0 
  7 11  1  0  0  0  0 
  7 12  1  6  0  0  0 
 13  8  1  0  0  0  0 
  9 14  2  0  0  0  0 
 15 10  1  0  0  0  0 
 10 16  1  0  0  0  0 
 10 17  1  1  0  0  0 
 11 18  1  0  0  0  0 
 11 19  1  0  0  0  0 
 13 20  1  1  0  0  0 
 21 14  1  0  0  0  0 
 15 22  1  0  0  0  0 
 16 23  1  0  0  0  0 
 17 24  1  0  0  0  0 
 21 25  1  1  0  0  0 
 26 21  1  0  0  0  0 
 22 27  2  0  0  0  0 
 26 28  1  6  0  0  0 
 26 29  1  0  0  0  0 
 27 30  1  0  0  0  0 
 11 13  1  0  0  0  0 
 15 20  1  6  0  0  0 
 18 19  1  0  0  0  0 
 23 27  1  0  0  0  0 
M  END
> <ID>
CHEBI:200652

> <NAME>
Trichoverrol B

$$$$

CDK     1028232203

 26 30  0  0  0  0  0  0  0  0999 V2000
    4.0366   -4.6285    0.0000 O   0  0  0  0  0  0  0  0  0  0  0  0
    3.3692   -4.1435    0.0000 C   0  0  0  0  0  0  0  0  0  0  0  0
    3.4554   -3.3231    0.0000 C   0  0  0  0  0  0  0  0  0  0  0  0
    2.6155   -4.4791    0.0000 C   0  0  0  0  0  0  0  0  0  0  0  0
    2.7880   -2.8381    0.0000 C   0  0  0  0  0  0  0  0  0  0  0  0
    4.2091   -2.9875    0.0000 C   0  0  0  0  0  0  0  0  0  0  0  0
    1.9481   -3.9942    0.0000 C   0  0  0  0  0  0  0  0  0  0  0  0
    2.5292   -5.2996    0.0000 C   0  0  0  0  0  0  0  0  0  0  0  0
    2.0343   -3.1737    0.0000 O   0  0  0  0  0  0  0  0  0  0  0  0
    2.8743   -2.0177    0.0000 C   0  0  0  0  0  0  0  0  0  0  0  0
    4.8766   -3.4724    0.0000 O   0  0  0  0  0  0  0  0  0  0  0  0
    4.2953   -2.1670    0.0000 C   0  0  0  0  0  0  0  0  0  0  0  0
    1.1944   -4.3298    0.0000 C   0  0  0  0  0  0  0  0  0  0  0  0
    3.1968   -5.7846    0.0000 O   0  0  0  0  0  0  0  0  0  0  0  0
    1.7756   -5.6352    0.0000 C   0  0  0  0  0  0  0  0  0  0  0  0
    3.6279   -1.6820    0.0000 C   0  0  0  0  0  0  0  0  0  0  0  0
    2.3222   -1.4045    0.0000 C   0  0  1  0  0  0  0  0  0  0  0  0
    5.6303   -3.1369    0.0000 C   0  0  0  0  0  0  0  0  0  0  0  0
    1.1082   -5.1502    0.0000 C   0  0  0  0  0  0  0  0  0  0  0  0
    3.5417   -0.8616    0.0000 O   0  0  0  0  0  0  0  0  0  0  0  0
    2.7347   -0.6900    0.0000 C   0  0  1  0  0  0  0  0  0  0  0  0
    1.5152   -1.2330    0.0000 C   0  0  0  0  0  0  0  0  0  0  0  0
    2.1827   -0.0770    0.0000 O   0  0  0  0  0  0  0  0  0  0  0  0
    1.4290   -0.4125    0.0000 C   0  0  1  0  0  0  0  0  0  0  0  0
    0.7145    0.0000    0.0000 O   0  0  0  0  0  0  0  0  0  0  0  0
    0.0000   -0.4125    0.0000 C   0  0  0  0  0  0  0  0  0  0  0  0
  1  2  2  0  0  0  0 
  2  3  1  0  0  0  0 
  2  4  1  0  0  0  0 
  3  5  2  0  0  0  0 
  3  6  1  0  0  0  0 
  4  7  2  0  0  0  0 
  4  8  1  0  0  0  0 
  5  9  1  0  0  0  0 
  5 10  1  0  0  0  0 
  6 11  1  0  0  0  0 
  6 12  2  0  0  0  0 
  7 13  1  0  0  0  0 
  8 14  1  0  0  0  0 
  8 15  2  0  0  0  0 
 10 16  2  0  0  0  0 
 17 10  1  0  0  0  0 
 11 18  1  0  0  0  0 
 13 19  2  0  0  0  0 
 16 20  1  0  0  0  0 
 21 17  1  0  0  0  0 
 17 22  1  6  0  0  0 
 21 23  1  6  0  0  0 
 24 22  1  0  0  0  0 
 24 25  1  6  0  0  0 
 25 26  1  0  0  0  0 
  7  9  1  0  0  0  0 
 12 16  1  0  0  0  0 
 15 19  1  0  0  0  0 
 20 21  1  0  0  0  0 
 23 24  1  0  0  0  0 
M  END
> <ID>
CHEBI:200696

> <NAME>
Oxisterigmatocystin C

$$$$

CDK     1028232203

 38 43  0  0  0  0  0  0  0  0999 V2000
    1.0482   -3.5835    0.0000 O   0  0  0  0  0  0  0  0  0  0  0  0
    0.5103   -2.9579    0.0000 C   0  0  0  0  0  0  0  0  0  0  0  0
    1.0331   -2.3196    0.0000 O   0  0  0  0  0  0  0  0  0  0  0  0
   -0.1991   -3.3789    0.0000 C   0  0  0  0  0  0  0  0  0  0  0  0
    1.3743   -1.5431    0.0000 C   0  0  0  0  0  0  0  0  0  0  0  0
   -1.0098   -3.5318    0.0000 C   0  0  0  0  0  0  0  0  0  0  0  0
    1.3830   -0.9024    0.0000 C   0  0  0  0  0  0  0  0  0  0  0  0
   -1.8239   -3.3982    0.0000 C   0  0  0  0  0  0  0  0  0  0  0  0
   -1.0000   -4.3567    0.0000 C   0  0  0  0  0  0  0  0  0  0  0  0
    0.7144    0.0000    0.0000 C   0  0  0  0  0  0  0  0  0  0  0  0
    2.2264   -0.7539    0.0000 C   0  0  0  0  0  0  0  0  0  0  0  0
    1.0182   -1.6691    0.0000 C   0  0  0  0  0  0  0  0  0  0  0  0
   -2.7152   -2.9277    0.0000 C   0  0  0  0  0  0  0  0  0  0  0  0
    1.5372    0.0604    0.0000 C   0  0  0  0  0  0  0  0  0  0  0  0
    0.4028    0.7639    0.0000 C   0  0  0  0  0  0  0  0  0  0  0  0
    0.0000   -0.4125    0.0000 C   0  0  0  0  0  0  0  0  0  0  0  0
    2.5123    0.0483    0.0000 O   0  0  0  0  0  0  0  0  0  0  0  0
    2.7486   -1.3730    0.0000 C   0  0  0  0  0  0  0  0  0  0  0  0
    1.6571   -2.2954    0.0000 C   0  0  0  0  0  0  0  0  0  0  0  0
   -2.6388   -2.1062    0.0000 O   0  0  0  0  0  0  0  0  0  0  0  0
   -3.5201   -3.1088    0.0000 O   0  0  0  0  0  0  0  0  0  0  0  0
    1.7101   -0.6946    0.0000 O   0  0  0  0  0  0  0  0  0  0  0  0
    1.7341    0.8615    0.0000 C   0  0  0  0  0  0  0  0  0  0  0  0
    2.2218   -0.2119    0.0000 C   0  0  0  0  0  0  0  0  0  0  0  0
   -0.2524    1.0853    0.0000 O   0  0  0  0  0  0  0  0  0  0  0  0
    1.0329    1.2963    0.0000 C   0  0  0  0  0  0  0  0  0  0  0  0
    2.4691   -2.1493    0.0000 C   0  0  0  0  0  0  0  0  0  0  0  0
   -3.3964   -1.7797    0.0000 C   0  0  0  0  0  0  0  0  0  0  0  0
   -3.9411   -2.3993    0.0000 C   0  0  0  0  0  0  0  0  0  0  0  0
   -1.0666    1.2189    0.0000 C   0  0  0  0  0  0  0  0  0  0  0  0
    0.9725    2.1191    0.0000 O   0  0  0  0  0  0  0  0  0  0  0  0
    3.0015   -2.7794    0.0000 C   0  0  0  0  0  0  0  0  0  0  0  0
   -3.3823   -0.7720    0.0000 C   0  0  0  0  0  0  0  0  0  0  0  0
   -4.7625   -2.3229    0.0000 C   0  0  0  0  0  0  0  0  0  0  0  0
   -1.0764    2.0438    0.0000 O   0  0  0  0  0  0  0  0  0  0  0  0
   -1.8773    1.0659    0.0000 C   0  0  0  0  0  0  0  0  0  0  0  0
   -3.1094    0.0066    0.0000 C   0  0  0  0  0  0  0  0  0  0  0  0
   -2.5868    0.6449    0.0000 C   0  0  0  0  0  0  0  0  0  0  0  0
  1  2  2  0  0  0  0 
  2  3  1  0  0  0  0 
  2  4  1  0  0  0  0 
  3  5  1  0  0  0  0 
  4  6  2  0  0  0  0 
  5  7  1  0  0  0  0 
  6  8  1  0  0  0  0 
  6  9  1  0  0  0  0 
  7 10  1  0  0  0  0 
  7 11  1  0  0  0  0 
  7 12  1  0  0  0  0 
  8 13  1  0  0  0  0 
 10 14  1  0  0  0  0 
 10 15  1  0  0  0  0 
 10 16  1  0  0  0  0 
 11 17  1  0  0  0  0 
 11 18  1  0  0  0  0 
 12 19  1  0  0  0  0 
 13 20  1  0  0  0  0 
 13 21  1  0  0  0  0 
 14 22  1  0  0  0  0 
 14 23  1  0  0  0  0 
 14 24  1  0  0  0  0 
 15 25  1  0  0  0  0 
 15 26  1  0  0  0  0 
 18 27  2  0  0  0  0 
 20 28  1  0  0  0  0 
 21 29  1  0  0  0  0 
 25 30  1  0  0  0  0 
 26 31  1  0  0  0  0 
 27 32  1  0  0  0  0 
 28 33  1  0  0  0  0 
 29 34  1  0  0  0  0 
 30 35  2  0  0  0  0 
 30 36  1  0  0  0  0 
 33 37  2  0  0  0  0 
 36 38  2  0  0  0  0 
 17 23  1  0  0  0  0 
 19 27  1  0  0  0  0 
 22 24  1  0  0  0  0 
 23 26  1  0  0  0  0 
 28 29  1  0  0  0  0 
 37 38  1  0  0  0  0 
M  END
> <ID>
CHEBI:200730

> <NAME>
Roridin M

$$$$

CDK     1028232203

 25 29  0  0  0  0  0  0  0  0999 V2000
    1.4290    1.2375    0.0000 O   0  0  0  0  0  0  0  0  0  0  0  0
    2.1435    0.8250    0.0000 C   0  0  0  0  0  0  0  0  0  0  0  0
    2.1435    0.0000    0.0000 C   0  0  0  0  0  0  0  0  0  0  0  0
    2.8579    1.2375    0.0000 C   0  0  0  0  0  0  0  0  0  0  0  0
    2.8579   -0.4125    0.0000 C   0  0  0  0  0  0  0  0  0  0  0  0
    1.4290   -0.4125    0.0000 C   0  0  0  0  0  0  0  0  0  0  0  0
    3.5724    0.8250    0.0000 C   0  0  0  0  0  0  0  0  0  0  0  0
    2.8579    2.0625    0.0000 C   0  0  0  0  0  0  0  0  0  0  0  0
    3.5724    0.0000    0.0000 O   0  0  0  0  0  0  0  0  0  0  0  0
    2.8579   -1.2375    0.0000 C   0  0  0  0  0  0  0  0  0  0  0  0
    0.7145    0.0000    0.0000 O   0  0  0  0  0  0  0  0  0  0  0  0
    1.4290   -1.2375    0.0000 C   0  0  0  0  0  0  0  0  0  0  0  0
    4.2870    1.2375    0.0000 C   0  0  0  0  0  0  0  0  0  0  0  0
    2.1435    2.4751    0.0000 O   0  0  0  0  0  0  0  0  0  0  0  0
    3.5724    2.4751    0.0000 C   0  0  0  0  0  0  0  0  0  0  0  0
    2.1435   -1.6500    0.0000 C   0  0  0  0  0  0  0  0  0  0  0  0
    3.4710   -1.7895    0.0000 C   0  0  2  0  0  0  0  0  0  0  0  0
    0.0000   -0.4125    0.0000 C   0  0  0  0  0  0  0  0  0  0  0  0
    5.0014    0.8250    0.0000 O   0  0  0  0  0  0  0  0  0  0  0  0
    4.2870    2.0625    0.0000 C   0  0  0  0  0  0  0  0  0  0  0  0
    2.3150   -2.4570    0.0000 O   0  0  0  0  0  0  0  0  0  0  0  0
    4.2916   -1.8758    0.0000 C   0  0  0  0  0  0  0  0  0  0  0  0
    3.1355   -2.5433    0.0000 C   0  0  1  0  0  0  0  0  0  0  0  0
    4.4631   -2.6828    0.0000 C   0  0  0  0  0  0  0  0  0  0  0  0
    3.7486   -3.0953    0.0000 O   0  0  0  0  0  0  0  0  0  0  0  0
  1  2  2  0  0  0  0 
  2  3  1  0  0  0  0 
  2  4  1  0  0  0  0 
  3  5  2  0  0  0  0 
  3  6  1  0  0  0  0 
  4  7  2  0  0  0  0 
  4  8  1  0  0  0  0 
  5  9  1  0  0  0  0 
  5 10  1  0  0  0  0 
  6 11  1  0  0  0  0 
  6 12  2  0  0  0  0 
  7 13  1  0  0  0  0 
  8 14  1  0  0  0  0 
  8 15  2  0  0  0  0 
 10 16  2  0  0  0  0 
 17 10  1  0  0  0  0 
 11 18  1  0  0  0  0 
 13 19  1  0  0  0  0 
 13 20  2  0  0  0  0 
 16 21  1  0  0  0  0 
 17 22  1  6  0  0  0 
 23 17  1  0  0  0  0 
 22 24  2  0  0  0  0 
 23 25  1  6  0  0  0 
  7  9  1  0  0  0  0 
 12 16  1  0  0  0  0 
 15 20  1  0  0  0  0 
 21 23  1  0  0  0  0 
 24 25  1  0  0  0  0 
M  END
> <ID>
CHEBI:200754

> <NAME>
(3S,7R)-15,18-dihydroxy-11-methoxy-6,8,20-trioxapentacyclo[10.8.0.02,9.03,7.014,19]icosa-1,4,9,11,14,16,18-heptaen-13-one

$$$$

CDK     1028232203

 41 46  0  0  0  0  0  0  0  0999 V2000
    4.9442   -0.9103    0.0000 O   0  0  0  0  0  0  0  0  0  0  0  0
    5.0013   -1.6500    0.0000 C   0  0  0  0  0  0  0  0  0  0  0  0
    5.7157   -2.0625    0.0000 O   0  0  0  0  0  0  0  0  0  0  0  0
    4.2868   -2.0625    0.0000 C   0  0  0  0  0  0  0  0  0  0  0  0
    6.5228   -1.6550    0.0000 C   0  0  0  0  0  0  0  0  0  0  0  0
    3.5723   -1.6500    0.0000 C   0  0  0  0  0  0  0  0  0  0  0  0
    6.5036   -1.1311    0.0000 C   0  0  1  0  0  0  0  0  0  0  0  0
    3.5723   -0.8250    0.0000 C   0  0  1  0  0  0  0  0  0  0  0  0
    2.8579   -2.0625    0.0000 C   0  0  0  0  0  0  0  0  0  0  0  0
    5.8275   -0.2343    0.0000 C   0  0  2  0  0  0  0  0  0  0  0  0
    7.3457   -0.9757    0.0000 C   0  0  0  0  0  0  0  0  0  0  0  0
    6.2783   -1.9756    0.0000 C   0  0  0  0  0  0  0  0  0  0  0  0
    4.2868   -0.4125    0.0000 O   0  0  0  0  0  0  0  0  0  0  0  0
    2.8579   -0.4125    0.0000 C   0  0  0  0  0  0  0  0  0  0  0  0
    2.1434   -1.6500    0.0000 C   0  0  0  0  0  0  0  0  0  0  0  0
    6.6498   -0.1671    0.0000 C   0  0  2  0  0  0  0  0  0  0  0  0
    5.5095    0.5269    0.0000 C   0  0  2  0  0  0  0  0  0  0  0  0
    5.1451   -0.6101    0.0000 C   0  0  0  0  0  0  0  0  0  0  0  0
    7.6249   -0.1711    0.0000 O   0  0  0  0  0  0  0  0  0  0  0  0
    7.8730   -1.5904    0.0000 C   0  0  0  0  0  0  0  0  0  0  0  0
    6.7892   -2.5218    0.0000 C   0  0  0  0  0  0  0  0  0  0  0  0
    2.1434   -0.8250    0.0000 O   0  0  0  0  0  0  0  0  0  0  0  0
    2.8579    0.4125    0.0000 C   0  0  0  0  0  0  0  0  0  0  0  0
    2.1434    0.0000    0.0000 C   0  0  0  0  0  0  0  0  0  0  0  0
    6.8290   -0.9206    0.0000 O   0  0  0  0  0  0  0  0  0  0  0  0
    6.8400    0.6357    0.0000 C   0  0  0  0  0  0  0  0  0  0  0  0
    7.3366   -0.4337    0.0000 C   0  0  0  0  0  0  0  0  0  0  0  0
    5.0013    0.8250    0.0000 O   0  0  0  0  0  0  0  0  0  0  0  0
    6.1352    1.0646    0.0000 C   0  0  0  0  0  0  0  0  0  0  0  0
    7.6000   -2.3690    0.0000 C   0  0  0  0  0  0  0  0  0  0  0  0
    3.5723    0.8250    0.0000 C   0  0  0  0  0  0  0  0  0  0  0  0
    1.4289   -0.4125    0.0000 O   0  0  0  0  0  0  0  0  0  0  0  0
    2.1434    0.8250    0.0000 C   0  0  0  0  0  0  0  0  0  0  0  0
    5.0013    1.6500    0.0000 C   0  0  0  0  0  0  0  0  0  0  0  0
    8.1377   -2.9946    0.0000 C   0  0  0  0  0  0  0  0  0  0  0  0
    3.5723    1.6500    0.0000 C   0  0  0  0  0  0  0  0  0  0  0  0
    0.7145    0.0000    0.0000 C   0  0  0  0  0  0  0  0  0  0  0  0
    5.7157    2.0625    0.0000 O   0  0  0  0  0  0  0  0  0  0  0  0
    4.2868    2.0625    0.0000 C   0  0  0  0  0  0  0  0  0  0  0  0
    0.7145    0.8250    0.0000 O   0  0  0  0  0  0  0  0  0  0  0  0
    0.0000   -0.4125    0.0000 C   0  0  0  0  0  0  0  0  0  0  0  0
  1  2  2  0  0  0  0 
  2  3  1  0  0  0  0 
  2  4  1  0  0  0  0 
  3  5  1  0  0  0  0 
  4  6  2  3  0  0  0 
  7  5  1  1  0  0  0 
  8  6  1  0  0  0  0 
  6  9  1  0  0  0  0 
 10  7  1  0  0  0  0 
  7 11  1  0  0  0  0 
  7 12  1  0  0  0  0 
  8 13  1  6  0  0  0 
  8 14  1  0  0  0  0 
  9 15  1  0  0  0  0 
 16 10  1  0  0  0  0 
 17 10  1  0  0  0  0 
 10 18  1  6  0  0  0 
 11 19  1  0  0  0  0 
 11 20  1  0  0  0  0 
 12 21  1  0  0  0  0 
 14 22  1  0  0  0  0 
 14 23  1  0  0  0  0 
 14 24  1  0  0  0  0 
 16 25  1  1  0  0  0 
 16 26  1  0  0  0  0 
 16 27  1  0  0  0  0 
 17 28  1  6  0  0  0 
 17 29  1  0  0  0  0 
 20 30  2  0  0  0  0 
 23 31  2  3  0  0  0 
 24 32  1  0  0  0  0 
 24 33  1  0  0  0  0 
 28 34  1  0  0  0  0 
 30 35  1  0  0  0  0 
 31 36  1  0  0  0  0 
 32 37  1  0  0  0  0 
 34 38  2  0  0  0  0 
 34 39  1  0  0  0  0 
 37 40  2  0  0  0  0 
 37 41  1  0  0  0  0 
 15 22  1  0  0  0  0 
 19 26  1  0  0  0  0 
 21 30  1  0  0  0  0 
 25 27  1  0  0  0  0 
 26 29  1  0  0  0  0 
 36 39  2  0  0  0  0 
M  END
> <ID>
CHEBI:200835

> <NAME>
Satratoxin H 13'-acetate

$$$$

CDK     1028232203

 39 42  0  0  0  0  0  0  0  0999 V2000
    6.8008   -2.4713    0.0000 O   0  0  0  0  0  0  0  0  0  0  0  0
    7.6194   -2.5747    0.0000 C   0  0  0  0  0  0  0  0  0  0  0  0
    8.1181   -1.9176    0.0000 O   0  0  0  0  0  0  0  0  0  0  0  0
    7.9391   -3.3353    0.0000 C   0  0  0  0  0  0  0  0  0  0  0  0
    7.7984   -1.1570    0.0000 C   0  0  0  0  0  0  0  0  0  0  0  0
    7.4403   -3.9924    0.0000 C   0  0  0  0  0  0  0  0  0  0  0  0
    8.2912   -0.5241    0.0000 C   0  0  1  0  0  0  0  0  0  0  0  0
    7.7600   -4.7530    0.0000 C   0  0  0  0  0  0  0  0  0  0  0  0
    6.6218   -3.8891    0.0000 C   0  0  0  0  0  0  0  0  0  0  0  0
    7.1841   -0.3355    0.0000 C   0  0  2  0  0  0  0  0  0  0  0  0
    8.7972    0.1668    0.0000 C   0  0  2  0  0  0  0  0  0  0  0  0
    8.6327   -1.2535    0.0000 C   0  0  0  0  0  0  0  0  0  0  0  0
    7.2612   -5.4101    0.0000 C   0  0  0  0  0  0  0  0  0  0  0  0
    7.7361    0.2775    0.0000 C   0  0  1  0  0  0  0  0  0  0  0  0
    6.4304    0.0000    0.0000 C   0  0  2  0  0  0  0  0  0  0  0  0
    6.9539   -1.1278    0.0000 C   0  0  0  0  0  0  0  0  0  0  0  0
    8.4483    0.9437    0.0000 O   0  0  0  0  0  0  0  0  0  0  0  0
    9.6026    0.0813    0.0000 C   0  0  0  0  0  0  0  0  0  0  0  0
    9.4532   -1.3397    0.0000 C   0  0  1  0  0  0  0  0  0  0  0  0
    7.5810   -6.1707    0.0000 O   0  0  0  0  0  0  0  0  0  0  0  0
    8.3835   -0.1477    0.0000 O   0  0  0  0  0  0  0  0  0  0  0  0
    7.3236    0.9920    0.0000 C   0  0  2  0  0  0  0  0  0  0  0  0
    8.4187    0.5548    0.0000 C   0  0  0  0  0  0  0  0  0  0  0  0
    5.7159   -0.4125    0.0000 O   0  0  0  0  0  0  0  0  0  0  0  0
    6.5167    0.8205    0.0000 C   0  0  0  0  0  0  0  0  0  0  0  0
    9.9382   -0.6723    0.0000 C   0  0  0  0  0  0  0  0  0  0  0  0
    9.7888   -2.0935    0.0000 O   0  0  0  0  0  0  0  0  0  0  0  0
    5.0014    0.0000    0.0000 C   0  0  0  0  0  0  0  0  0  0  0  0
   10.7586   -0.7585    0.0000 C   0  0  0  0  0  0  0  0  0  0  0  0
    5.0014    0.8250    0.0000 O   0  0  0  0  0  0  0  0  0  0  0  0
    4.2870   -0.4125    0.0000 C   0  0  0  0  0  0  0  0  0  0  0  0
    3.5724    0.0000    0.0000 C   0  0  0  0  0  0  0  0  0  0  0  0
    3.5724    0.8250    0.0000 C   0  0  0  0  0  0  0  0  0  0  0  0
    2.8579    1.2375    0.0000 C   0  0  0  0  0  0  0  0  0  0  0  0
    2.8579    2.0625    0.0000 C   0  0  1  0  0  0  0  0  0  0  0  0
    3.5724    2.4751    0.0000 O   0  0  0  0  0  0  0  0  0  0  0  0
    2.1435    2.4751    0.0000 C   0  0  2  0  0  0  0  0  0  0  0  0
    1.4290    2.0625    0.0000 O   0  0  0  0  0  0  0  0  0  0  0  0
    2.1435    3.3001    0.0000 C   0  0  0  0  0  0  0  0  0  0  0  0
  1  2  2  0  0  0  0 
  2  3  1  0  0  0  0 
  2  4  1  0  0  0  0 
  3  5  1  0  0  0  0 
  4  6  2  0  0  0  0 
  7  5  1  1  0  0  0 
  6  8  1  0  0  0  0 
  6  9  1  0  0  0  0 
 10  7  1  0  0  0  0 
 11  7  1  0  0  0  0 
  7 12  1  0  0  0  0 
  8 13  1  0  0  0  0 
 14 10  1  0  0  0  0 
 15 10  1  0  0  0  0 
 10 16  1  6  0  0  0 
 11 17  1  6  0  0  0 
 11 18  1  0  0  0  0 
 19 12  1  0  0  0  0 
 13 20  1  0  0  0  0 
 14 21  1  6  0  0  0 
 22 14  1  0  0  0  0 
 14 23  1  0  0  0  0 
 15 24  1  6  0  0  0 
 15 25  1  0  0  0  0 
 18 26  2  0  0  0  0 
 19 27  1  1  0  0  0 
 24 28  1  0  0  0  0 
 26 29  1  0  0  0  0 
 28 30  2  0  0  0  0 
 28 31  1  0  0  0  0 
 31 32  2  0  0  0  0 
 32 33  1  0  0  0  0 
 33 34  2  0  0  0  0 
 35 34  1  0  0  0  0 
 35 36  1  6  0  0  0 
 37 35  1  0  0  0  0 
 37 38  1  6  0  0  0 
 37 39  1  0  0  0  0 
 22 17  1  1  0  0  0 
 19 26  1  0  0  0  0 
 21 23  1  0  0  0  0 
 22 25  1  0  0  0  0 
M  END
> <ID>
CHEBI:200918

> <NAME>
8a-Hydroxyisotrichoverrin A

$$$$

CDK     1028232203

 38 42  0  0  0  0  0  0  0  0999 V2000
    3.5724   -4.9500    0.0000 O   0  0  0  0  0  0  0  0  0  0  0  0
    3.5724   -4.1251    0.0000 C   0  0  0  0  0  0  0  0  0  0  0  0
    4.2971   -3.7038    0.0000 O   0  0  0  0  0  0  0  0  0  0  0  0
    2.8579   -3.7126    0.0000 C   0  0  0  0  0  0  0  0  0  0  0  0
    4.3289   -2.9703    0.0000 C   0  0  0  0  0  0  0  0  0  0  0  0
    2.8579   -2.8875    0.0000 C   0  0  0  0  0  0  0  0  0  0  0  0
    4.7729   -2.6917    0.0000 C   0  0  1  0  0  0  0  0  0  0  0  0
    2.1434   -2.4750    0.0000 C   0  0  0  0  0  0  0  0  0  0  0  0
    3.5724   -2.4750    0.0000 C   0  0  0  0  0  0  0  0  0  0  0  0
    5.2116   -1.6578    0.0000 C   0  0  2  0  0  0  0  0  0  0  0  0
    5.3286   -3.3432    0.0000 C   0  0  2  0  0  0  0  0  0  0  0  0
    3.9609   -2.8480    0.0000 C   0  0  0  0  0  0  0  0  0  0  0  0
    2.1434   -1.6500    0.0000 C   0  0  0  0  0  0  0  0  0  0  0  0
    5.6809   -2.3363    0.0000 C   0  0  1  0  0  0  0  0  0  0  0  0
    5.7118   -1.0018    0.0000 C   0  0  2  0  0  0  0  0  0  0  0  0
    4.4937   -1.2512    0.0000 C   0  0  0  0  0  0  0  0  0  0  0  0
    6.1650   -3.1827    0.0000 O   0  0  0  0  0  0  0  0  0  0  0  0
    5.0598   -4.1072    0.0000 C   0  0  0  0  0  0  0  0  0  0  0  0
    3.6968   -3.6092    0.0000 C   0  0  0  0  0  0  0  0  0  0  0  0
    1.4290   -1.2375    0.0000 O   0  0  0  0  0  0  0  0  0  0  0  0
    5.1179   -2.8682    0.0000 O   0  0  0  0  0  0  0  0  0  0  0  0
    6.4712   -2.0995    0.0000 C   0  0  2  0  0  0  0  0  0  0  0  0
    5.7934   -3.0644    0.0000 C   0  0  0  0  0  0  0  0  0  0  0  0
    5.7158   -0.4125    0.0000 O   0  0  0  0  0  0  0  0  0  0  0  0
    6.4903   -1.2748    0.0000 C   0  0  0  0  0  0  0  0  0  0  0  0
    4.2491   -4.2601    0.0000 C   0  0  0  0  0  0  0  0  0  0  0  0
    1.4290   -0.4125    0.0000 C   0  0  2  0  0  0  0  0  0  0  0  0
    5.0013    0.0000    0.0000 C   0  0  0  0  0  0  0  0  0  0  0  0
    7.1688   -0.8054    0.0000 O   0  0  0  0  0  0  0  0  0  0  0  0
    3.9761   -5.0386    0.0000 C   0  0  0  0  0  0  0  0  0  0  0  0
    2.1434    0.0000    0.0000 C   0  0  0  0  0  0  0  0  0  0  0  0
    0.7145    0.0000    0.0000 C   0  0  2  0  0  0  0  0  0  0  0  0
    5.0013    0.8250    0.0000 O   0  0  0  0  0  0  0  0  0  0  0  0
    4.2869   -0.4125    0.0000 C   0  0  0  0  0  0  0  0  0  0  0  0
    2.8579   -0.4125    0.0000 C   0  0  0  0  0  0  0  0  0  0  0  0
    0.7145    0.8250    0.0000 O   0  0  0  0  0  0  0  0  0  0  0  0
    0.0000   -0.4125    0.0000 C   0  0  0  0  0  0  0  0  0  0  0  0
    3.5724    0.0000    0.0000 C   0  0  0  0  0  0  0  0  0  0  0  0
  1  2  2  0  0  0  0 
  2  3  1  0  0  0  0 
  2  4  1  0  0  0  0 
  3  5  1  0  0  0  0 
  4  6  2  3  0  0  0 
  7  5  1  1  0  0  0 
  6  8  1  0  0  0  0 
  6  9  1  0  0  0  0 
 10  7  1  0  0  0  0 
 11  7  1  0  0  0  0 
  7 12  1  0  0  0  0 
  8 13  1  0  0  0  0 
 14 10  1  0  0  0  0 
 15 10  1  0  0  0  0 
 10 16  1  6  0  0  0 
 11 17  1  6  0  0  0 
 11 18  1  0  0  0  0 
 12 19  1  0  0  0  0 
 13 20  1  0  0  0  0 
 14 21  1  6  0  0  0 
 22 14  1  0  0  0  0 
 14 23  1  0  0  0  0 
 15 24  1  6  0  0  0 
 15 25  1  0  0  0  0 
 18 26  2  0  0  0  0 
 27 20  1  1  0  0  0 
 24 28  1  0  0  0  0 
 25 29  1  0  0  0  0 
 26 30  1  0  0  0  0 
 27 31  1  0  0  0  0 
 32 27  1  0  0  0  0 
 28 33  2  0  0  0  0 
 28 34  1  0  0  0  0 
 31 35  2  3  0  0  0 
 32 36  1  1  0  0  0 
 32 37  1  0  0  0  0 
 34 38  2  0  0  0  0 
 22 17  1  1  0  0  0 
 19 26  1  0  0  0  0 
 21 23  1  0  0  0  0 
 22 25  1  0  0  0  0 
 35 38  1  0  0  0  0 
M  END
> <ID>
CHEBI:200944

> <NAME>
3-Hydroxyroridin E

$$$$

CDK     1028232204

 24 28  0  0  0  0  0  0  0  0999 V2000
    0.0000   -1.2375    0.0000 O   0  0  0  0  0  0  0  0  0  0  0  0
    0.7145   -1.6500    0.0000 C   0  0  0  0  0  0  0  0  0  0  0  0
    1.4290   -1.2375    0.0000 C   0  0  0  0  0  0  0  0  0  0  0  0
    0.7145   -2.4750    0.0000 C   0  0  0  0  0  0  0  0  0  0  0  0
    2.1435   -1.6500    0.0000 C   0  0  0  0  0  0  0  0  0  0  0  0
    1.4290   -0.4125    0.0000 C   0  0  0  0  0  0  0  0  0  0  0  0
    1.4290   -2.8875    0.0000 C   0  0  0  0  0  0  0  0  0  0  0  0
    0.0000   -2.8875    0.0000 C   0  0  0  0  0  0  0  0  0  0  0  0
    2.1435   -2.4750    0.0000 O   0  0  0  0  0  0  0  0  0  0  0  0
    2.8579   -1.2375    0.0000 C   0  0  0  0  0  0  0  0  0  0  0  0
    0.7145    0.0000    0.0000 O   0  0  0  0  0  0  0  0  0  0  0  0
    2.1435    0.0000    0.0000 C   0  0  0  0  0  0  0  0  0  0  0  0
    1.4290   -3.7126    0.0000 C   0  0  0  0  0  0  0  0  0  0  0  0
   -0.7145   -2.4750    0.0000 O   0  0  0  0  0  0  0  0  0  0  0  0
    0.0000   -3.7126    0.0000 C   0  0  0  0  0  0  0  0  0  0  0  0
    2.8579   -0.4125    0.0000 C   0  0  0  0  0  0  0  0  0  0  0  0
    0.0000   -0.4125    0.0000 C   0  0  0  0  0  0  0  0  0  0  0  0
    0.7145   -4.1251    0.0000 C   0  0  0  0  0  0  0  0  0  0  0  0
    2.0421   -4.2646    0.0000 C   0  0  2  0  0  0  0  0  0  0  0  0
    0.8860   -4.9320    0.0000 O   0  0  0  0  0  0  0  0  0  0  0  0
    2.8625   -4.3509    0.0000 C   0  0  0  0  0  0  0  0  0  0  0  0
    1.7065   -5.0183    0.0000 C   0  0  1  0  0  0  0  0  0  0  0  0
    3.0341   -5.1578    0.0000 C   0  0  0  0  0  0  0  0  0  0  0  0
    2.3196   -5.5703    0.0000 O   0  0  0  0  0  0  0  0  0  0  0  0
  1  2  2  0  0  0  0 
  2  3  1  0  0  0  0 
  2  4  1  0  0  0  0 
  3  5  2  0  0  0  0 
  3  6  1  0  0  0  0 
  4  7  2  0  0  0  0 
  4  8  1  0  0  0  0 
  5  9  1  0  0  0  0 
  5 10  1  0  0  0  0 
  6 11  1  0  0  0  0 
  6 12  2  0  0  0  0 
  7 13  1  0  0  0  0 
  8 14  1  0  0  0  0 
  8 15  2  0  0  0  0 
 10 16  2  0  0  0  0 
 11 17  1  0  0  0  0 
 13 18  2  0  0  0  0 
 19 13  1  0  0  0  0 
 18 20  1  0  0  0  0 
 19 21  1  6  0  0  0 
 22 19  1  0  0  0  0 
 21 23  2  0  0  0  0 
 22 24  1  6  0  0  0 
  7  9  1  0  0  0  0 
 12 16  1  0  0  0  0 
 15 18  1  0  0  0  0 
 20 22  1  0  0  0  0 
 23 24  1  0  0  0  0 
M  END
> <ID>
CHEBI:201261

> <NAME>
(3S,7R)-11-hydroxy-15-methoxy-6,8,20-trioxapentacyclo[10.8.0.02,9.03,7.014,19]icosa-1(12),2(9),4,10,14(19),15,17-heptaen-13-one

$$$$

CDK     1028232204

 28 32  0  0  0  0  0  0  0  0999 V2000
    4.0366   -4.6285    0.0000 O   0  0  0  0  0  0  0  0  0  0  0  0
    3.3692   -4.1435    0.0000 C   0  0  0  0  0  0  0  0  0  0  0  0
    3.4554   -3.3231    0.0000 C   0  0  0  0  0  0  0  0  0  0  0  0
    2.6155   -4.4791    0.0000 C   0  0  0  0  0  0  0  0  0  0  0  0
    2.7880   -2.8381    0.0000 C   0  0  0  0  0  0  0  0  0  0  0  0
    4.2091   -2.9875    0.0000 C   0  0  0  0  0  0  0  0  0  0  0  0
    1.9481   -3.9942    0.0000 C   0  0  0  0  0  0  0  0  0  0  0  0
    2.5292   -5.2996    0.0000 C   0  0  0  0  0  0  0  0  0  0  0  0
    2.0343   -3.1737    0.0000 O   0  0  0  0  0  0  0  0  0  0  0  0
    2.8743   -2.0177    0.0000 C   0  0  0  0  0  0  0  0  0  0  0  0
    4.8766   -3.4724    0.0000 O   0  0  0  0  0  0  0  0  0  0  0  0
    4.2953   -2.1670    0.0000 C   0  0  0  0  0  0  0  0  0  0  0  0
    1.1944   -4.3298    0.0000 C   0  0  0  0  0  0  0  0  0  0  0  0
    3.1968   -5.7846    0.0000 O   0  0  0  0  0  0  0  0  0  0  0  0
    1.7756   -5.6352    0.0000 C   0  0  0  0  0  0  0  0  0  0  0  0
    3.6279   -1.6820    0.0000 C   0  0  0  0  0  0  0  0  0  0  0  0
    2.3222   -1.4045    0.0000 C   0  0  1  0  0  0  0  0  0  0  0  0
    5.6303   -3.1369    0.0000 C   0  0  0  0  0  0  0  0  0  0  0  0
    0.5269   -3.8448    0.0000 O   0  0  0  0  0  0  0  0  0  0  0  0
    1.1082   -5.1502    0.0000 C   0  0  0  0  0  0  0  0  0  0  0  0
    3.5417   -0.8616    0.0000 O   0  0  0  0  0  0  0  0  0  0  0  0
    2.7347   -0.6900    0.0000 C   0  0  1  0  0  0  0  0  0  0  0  0
    1.5152   -1.2330    0.0000 C   0  0  0  0  0  0  0  0  0  0  0  0
   -0.2268   -4.1803    0.0000 C   0  0  0  0  0  0  0  0  0  0  0  0
    2.1827   -0.0770    0.0000 O   0  0  0  0  0  0  0  0  0  0  0  0
    1.4290   -0.4125    0.0000 C   0  0  1  0  0  0  0  0  0  0  0  0
    0.7145    0.0000    0.0000 O   0  0  0  0  0  0  0  0  0  0  0  0
    0.0000   -0.4125    0.0000 C   0  0  0  0  0  0  0  0  0  0  0  0
  1  2  2  0  0  0  0 
  2  3  1  0  0  0  0 
  2  4  1  0  0  0  0 
  3  5  2  0  0  0  0 
  3  6  1  0  0  0  0 
  4  7  2  0  0  0  0 
  4  8  1  0  0  0  0 
  5  9  1  0  0  0  0 
  5 10  1  0  0  0  0 
  6 11  1  0  0  0  0 
  6 12  2  0  0  0  0 
  7 13  1  0  0  0  0 
  8 14  1  0  0  0  0 
  8 15  2  0  0  0  0 
 10 16  2  0  0  0  0 
 17 10  1  0  0  0  0 
 11 18  1  0  0  0  0 
 13 19  1  0  0  0  0 
 13 20  2  0  0  0  0 
 16 21  1  0  0  0  0 
 22 17  1  0  0  0  0 
 17 23  1  6  0  0  0 
 19 24  1  0  0  0  0 
 22 25  1  6  0  0  0 
 26 23  1  0  0  0  0 
 26 27  1  6  0  0  0 
 27 28  1  0  0  0  0 
  7  9  1  0  0  0  0 
 12 16  1  0  0  0  0 
 15 20  1  0  0  0  0 
 21 22  1  0  0  0  0 
 25 26  1  0  0  0  0 
M  END
> <ID>
CHEBI:201299

> <NAME>
Oxisterigmatocystin A

$$$$

CDK     1029232200

 27 30  0  0  0  0  0  0  0  0999 V2000
    2.1434    0.8250    0.0000 O   0  0  0  0  0  0  0  0  0  0  0  0
    2.1434    0.0000    0.0000 C   0  0  0  0  0  0  0  0  0  0  0  0
    2.8579   -0.4125    0.0000 O   0  0  0  0  0  0  0  0  0  0  0  0
    1.4290   -0.4125    0.0000 C   0  0  0  0  0  0  0  0  0  0  0  0
    3.5724    0.0000    0.0000 C   0  0  0  0  0  0  0  0  0  0  0  0
    0.7145    0.0000    0.0000 C   0  0  0  0  0  0  0  0  0  0  0  0
    4.2869   -0.4125    0.0000 C   0  0  0  0  0  0  0  0  0  0  0  0
    3.5724    0.8250    0.0000 C   0  0  0  0  0  0  0  0  0  0  0  0
    0.7145    0.8250    0.0000 C   0  0  0  0  0  0  0  0  0  0  0  0
    0.0000   -0.4125    0.0000 C   0  0  0  0  0  0  0  0  0  0  0  0
    5.0013    0.0000    0.0000 C   0  0  0  0  0  0  0  0  0  0  0  0
    4.2869   -1.2375    0.0000 C   0  0  0  0  0  0  0  0  0  0  0  0
    4.2621    1.2409    0.0000 C   0  0  0  0  0  0  0  0  0  0  0  0
    5.0022    0.8099    0.0000 C   0  0  0  0  0  0  0  0  0  0  0  0
    4.3339    2.3617    0.0000 C   0  0  0  0  0  0  0  0  0  0  0  0
    3.5812    1.6649    0.0000 C   0  0  0  0  0  0  0  0  0  0  0  0
    5.7382    1.2382    0.0000 O   0  0  0  0  0  0  0  0  0  0  0  0
    5.0013    1.8767    0.0000 C   0  0  0  0  0  0  0  0  0  0  0  0
    4.5888    3.1463    0.0000 C   0  0  0  0  0  0  0  0  0  0  0  0
    3.5219    2.5077    0.0000 C   0  0  0  0  0  0  0  0  0  0  0  0
    2.8582    1.2674    0.0000 O   0  0  0  0  0  0  0  0  0  0  0  0
    5.6688    2.3617    0.0000 C   0  0  0  0  0  0  0  0  0  0  0  0
    4.6461    1.1884    0.0000 O   0  0  0  0  0  0  0  0  0  0  0  0
    5.3484    1.2269    0.0000 C   0  0  0  0  0  0  0  0  0  0  0  0
    4.1039    3.8137    0.0000 O   0  0  0  0  0  0  0  0  0  0  0  0
    5.4138    3.1463    0.0000 C   0  0  0  0  0  0  0  0  0  0  0  0
    5.8988    3.8137    0.0000 O   0  0  0  0  0  0  0  0  0  0  0  0
  1  2  2  0  0  0  0 
  2  3  1  0  0  0  0 
  2  4  1  0  0  0  0 
  3  5  1  0  0  0  0 
  4  6  1  0  0  0  0 
  5  7  1  0  0  0  0 
  5  8  1  0  0  0  0 
  6  9  1  0  0  0  0 
  6 10  1  0  0  0  0 
  7 11  2  0  0  0  0 
  7 12  1  0  0  0  0 
  8 13  1  0  0  0  0 
 11 14  1  0  0  0  0 
 13 15  1  0  0  0  0 
 13 16  1  0  0  0  0 
 14 17  1  0  0  0  0 
 15 18  1  0  0  0  0 
 15 19  1  0  0  0  0 
 15 20  1  0  0  0  0 
 16 21  1  0  0  0  0 
 17 22  1  0  0  0  0 
 18 23  1  0  0  0  0 
 18 24  1  0  0  0  0 
 19 25  1  0  0  0  0 
 19 26  1  0  0  0  0 
 26 27  1  0  0  0  0 
 13 14  1  0  0  0  0 
 18 22  1  0  0  0  0 
 22 26  1  0  0  0  0 
 23 24  1  0  0  0  0 
M  END
> <ID>
CHEBI:201447

> <NAME>
T2 Toxin Triol

$$$$

CDK     1029232200

 27 30  0  0  0  0  0  0  0  0999 V2000
    2.4421    3.5770    0.0000 O   0  0  0  0  0  0  0  0  0  0  0  0
    2.9409    2.9198    0.0000 C   0  0  0  0  0  0  0  0  0  0  0  0
    2.6211    2.1593    0.0000 O   0  0  0  0  0  0  0  0  0  0  0  0
    3.7593    3.0232    0.0000 C   0  0  0  0  0  0  0  0  0  0  0  0
    3.1199    1.5022    0.0000 C   0  0  0  0  0  0  0  0  0  0  0  0
    2.8814    0.7124    0.0000 C   0  0  0  0  0  0  0  0  0  0  0  0
    3.9447    1.5194    0.0000 C   0  0  0  0  0  0  0  0  0  0  0  0
    2.8330   -0.4096    0.0000 C   0  0  0  0  0  0  0  0  0  0  0  0
    3.5588    0.2415    0.0000 C   0  0  0  0  0  0  0  0  0  0  0  0
    2.0665    0.8414    0.0000 C   0  0  0  0  0  0  0  0  0  0  0  0
    4.4155    2.1968    0.0000 O   0  0  0  0  0  0  0  0  0  0  0  0
    4.2160    0.7403    0.0000 C   0  0  0  0  0  0  0  0  0  0  0  0
    3.5820   -0.8250    0.0000 C   0  0  0  0  0  0  0  0  0  0  0  0
    2.1522   -0.8398    0.0000 C   0  0  0  0  0  0  0  0  0  0  0  0
    2.1434    0.0000    0.0000 C   0  0  0  0  0  0  0  0  0  0  0  0
    3.2181   -0.4541    0.0000 O   0  0  0  0  0  0  0  0  0  0  0  0
    3.9194   -0.4009    0.0000 C   0  0  0  0  0  0  0  0  0  0  0  0
    4.3090   -0.3815    0.0000 O   0  0  0  0  0  0  0  0  0  0  0  0
    3.5981   -1.6348    0.0000 C   0  0  0  0  0  0  0  0  0  0  0  0
    2.1694   -1.6647    0.0000 C   0  0  0  0  0  0  0  0  0  0  0  0
    1.4290   -0.4125    0.0000 O   0  0  0  0  0  0  0  0  0  0  0  0
    2.8924   -2.0622    0.0000 C   0  0  0  0  0  0  0  0  0  0  0  0
    1.4637   -2.0920    0.0000 O   0  0  0  0  0  0  0  0  0  0  0  0
    0.7144    0.0000    0.0000 C   0  0  0  0  0  0  0  0  0  0  0  0
    2.9096   -2.8869    0.0000 C   0  0  0  0  0  0  0  0  0  0  0  0
    0.7144    0.8250    0.0000 O   0  0  0  0  0  0  0  0  0  0  0  0
    0.0000   -0.4125    0.0000 C   0  0  0  0  0  0  0  0  0  0  0  0
  1  2  2  0  0  0  0 
  2  3  1  0  0  0  0 
  2  4  1  0  0  0  0 
  3  5  1  0  0  0  0 
  5  6  1  0  0  0  0 
  5  7  1  0  0  0  0 
  6  8  1  0  0  0  0 
  6  9  1  0  0  0  0 
  6 10  1  0  0  0  0 
  7 11  1  0  0  0  0 
  7 12  1  0  0  0  0 
  8 13  1  0  0  0  0 
  8 14  1  0  0  0  0 
  8 15  1  0  0  0  0 
  9 16  1  0  0  0  0 
  9 17  1  0  0  0  0 
 12 18  1  0  0  0  0 
 13 19  1  0  0  0  0 
 14 20  1  0  0  0  0 
 15 21  1  0  0  0  0 
 19 22  2  0  0  0  0 
 20 23  1  0  0  0  0 
 21 24  1  0  0  0  0 
 22 25  1  0  0  0  0 
 24 26  2  0  0  0  0 
 24 27  1  0  0  0  0 
  9 12  1  0  0  0  0 
 13 18  1  0  0  0  0 
 16 17  1  0  0  0  0 
 20 22  1  0  0  0  0 
M  END
> <ID>
CHEBI:201458

> <NAME>
Neosolaniol

$$$$

CDK     1029232200

 22 25  0  0  0  0  0  0  0  0999 V2000
    0.0348   -2.0920    0.0000 O   0  0  0  0  0  0  0  0  0  0  0  0
    0.7405   -1.6647    0.0000 C   0  0  0  0  0  0  0  0  0  0  0  0
    1.4635   -2.0622    0.0000 C   0  0  0  0  0  0  0  0  0  0  0  0
    0.7233   -0.8398    0.0000 C   0  0  0  0  0  0  0  0  0  0  0  0
    2.1691   -1.6348    0.0000 C   0  0  0  0  0  0  0  0  0  0  0  0
    1.4807   -2.8869    0.0000 C   0  0  0  0  0  0  0  0  0  0  0  0
    0.0003   -0.4424    0.0000 O   0  0  0  0  0  0  0  0  0  0  0  0
    1.4041   -0.4096    0.0000 C   0  0  0  0  0  0  0  0  0  0  0  0
    2.1530   -0.8250    0.0000 C   0  0  0  0  0  0  0  0  0  0  0  0
    1.4525    0.7124    0.0000 C   0  0  0  0  0  0  0  0  0  0  0  0
    0.7144    0.0000    0.0000 C   0  0  0  0  0  0  0  0  0  0  0  0
    2.8800   -0.3815    0.0000 O   0  0  0  0  0  0  0  0  0  0  0  0
    2.1299    0.2415    0.0000 C   0  0  0  0  0  0  0  0  0  0  0  0
    1.6909    1.5022    0.0000 C   0  0  0  0  0  0  0  0  0  0  0  0
    0.6185    0.9344    0.0000 C   0  0  0  0  0  0  0  0  0  0  0  0
    0.6825    0.6234    0.0000 O   0  0  0  0  0  0  0  0  0  0  0  0
    2.7870    0.7403    0.0000 C   0  0  0  0  0  0  0  0  0  0  0  0
    1.7891   -0.4541    0.0000 O   0  0  0  0  0  0  0  0  0  0  0  0
    2.4905   -0.4009    0.0000 C   0  0  0  0  0  0  0  0  0  0  0  0
    1.1922    2.1594    0.0000 O   0  0  0  0  0  0  0  0  0  0  0  0
    2.5158    1.5194    0.0000 C   0  0  0  0  0  0  0  0  0  0  0  0
    2.9867    2.1968    0.0000 O   0  0  0  0  0  0  0  0  0  0  0  0
  1  2  2  0  0  0  0 
  2  3  1  0  0  0  0 
  2  4  1  0  0  0  0 
  3  5  2  0  0  0  0 
  3  6  1  0  0  0  0 
  4  7  1  0  0  0  0 
  4  8  1  0  0  0  0 
  5  9  1  0  0  0  0 
  8 10  1  0  0  0  0 
  8 11  1  0  0  0  0 
  9 12  1  0  0  0  0 
 10 13  1  0  0  0  0 
 10 14  1  0  0  0  0 
 10 15  1  0  0  0  0 
 11 16  1  0  0  0  0 
 12 17  1  0  0  0  0 
 13 18  1  0  0  0  0 
 13 19  1  0  0  0  0 
 14 20  1  0  0  0  0 
 14 21  1  0  0  0  0 
 21 22  1  0  0  0  0 
  8  9  1  0  0  0  0 
 13 17  1  0  0  0  0 
 17 21  1  0  0  0  0 
 18 19  1  0  0  0  0 
M  END
> <ID>
CHEBI:201481

> <NAME>
Standard Solution Nivalenol

$$$$

CDK     1029232200

 23 26  0  0  0  0  0  0  0  0999 V2000
    1.4290    2.0625    0.0000 O   0  0  0  0  0  0  0  0  0  0  0  0
    1.4290    1.2375    0.0000 C   0  0  0  0  0  0  0  0  0  0  0  0
    0.7144    0.8250    0.0000 O   0  0  0  0  0  0  0  0  0  0  0  0
    2.1434    0.8250    0.0000 C   0  0  0  0  0  0  0  0  0  0  0  0
    0.7144    0.0000    0.0000 C   0  0  0  0  0  0  0  0  0  0  0  0
    0.0148   -0.3924    0.0000 C   0  0  0  0  0  0  0  0  0  0  0  0
    0.9624   -0.9953    0.0000 C   0  0  0  0  0  0  0  0  0  0  0  0
   -0.7193   -0.8333    0.0000 C   0  0  0  0  0  0  0  0  0  0  0  0
   -0.0172    0.4123    0.0000 C   0  0  0  0  0  0  0  0  0  0  0  0
    0.2159   -1.3465    0.0000 C   0  0  0  0  0  0  0  0  0  0  0  0
    1.5271   -1.5967    0.0000 C   0  0  0  0  0  0  0  0  0  0  0  0
    1.4816   -0.3542    0.0000 C   0  0  0  0  0  0  0  0  0  0  0  0
   -0.6987   -1.6846    0.0000 O   0  0  0  0  0  0  0  0  0  0  0  0
   -1.4286   -0.4424    0.0000 C   0  0  0  0  0  0  0  0  0  0  0  0
   -0.7402    0.8098    0.0000 C   0  0  0  0  0  0  0  0  0  0  0  0
   -0.2161   -0.7036    0.0000 O   0  0  0  0  0  0  0  0  0  0  0  0
    0.3193   -2.1650    0.0000 C   0  0  0  0  0  0  0  0  0  0  0  0
   -0.5207   -1.3376    0.0000 C   0  0  0  0  0  0  0  0  0  0  0  0
    2.3456   -1.4933    0.0000 O   0  0  0  0  0  0  0  0  0  0  0  0
    1.1297   -2.3196    0.0000 C   0  0  0  0  0  0  0  0  0  0  0  0
   -1.4459    0.3825    0.0000 C   0  0  0  0  0  0  0  0  0  0  0  0
    1.4809   -3.0661    0.0000 O   0  0  0  0  0  0  0  0  0  0  0  0
   -2.1688    0.7799    0.0000 C   0  0  0  0  0  0  0  0  0  0  0  0
  1  2  2  0  0  0  0 
  2  3  1  0  0  0  0 
  2  4  1  0  0  0  0 
  3  5  1  0  0  0  0 
  5  6  1  0  0  0  0 
  6  7  1  0  0  0  0 
  6  8  1  0  0  0  0 
  6  9  1  0  0  0  0 
  7 10  1  0  0  0  0 
  7 11  1  0  0  0  0 
  7 12  1  0  0  0  0 
  8 13  1  0  0  0  0 
  8 14  1  0  0  0  0 
  9 15  1  0  0  0  0 
 10 16  1  0  0  0  0 
 10 17  1  0  0  0  0 
 10 18  1  0  0  0  0 
 11 19  1  0  0  0  0 
 11 20  1  0  0  0  0 
 14 21  2  0  0  0  0 
 20 22  1  0  0  0  0 
 21 23  1  0  0  0  0 
 13 17  1  0  0  0  0 
 15 21  1  0  0  0  0 
 16 18  1  0  0  0  0 
 17 20  1  0  0  0  0 
M  END
> <ID>
CHEBI:201482

> <NAME>
15-Acetoxyscirpenol

$$$$

CDK     1029232200

 21 24  0  0  0  0  0  0  0  0999 V2000
    2.1277   -1.6847    0.0000 O   0  0  0  0  0  0  0  0  0  0  0  0
    2.1483   -0.8333    0.0000 C   0  0  0  0  0  0  0  0  0  0  0  0
    1.1096   -2.1651    0.0000 C   0  0  0  0  0  0  0  0  0  0  0  0
    2.8576   -0.4424    0.0000 C   0  0  0  0  0  0  0  0  0  0  0  0
    1.4141   -0.3925    0.0000 C   0  0  0  0  0  0  0  0  0  0  0  0
    1.2130   -1.3466    0.0000 C   0  0  0  0  0  0  0  0  0  0  0  0
    0.2993   -2.3197    0.0000 C   0  0  0  0  0  0  0  0  0  0  0  0
    2.8748    0.3825    0.0000 C   0  0  0  0  0  0  0  0  0  0  0  0
    0.4665   -0.9953    0.0000 C   0  0  0  0  0  0  0  0  0  0  0  0
    1.4462    0.4123    0.0000 C   0  0  0  0  0  0  0  0  0  0  0  0
    0.7145    0.0000    0.0000 C   0  0  0  0  0  0  0  0  0  0  0  0
    1.9498   -1.3376    0.0000 O   0  0  0  0  0  0  0  0  0  0  0  0
    1.6451   -0.7037    0.0000 C   0  0  0  0  0  0  0  0  0  0  0  0
   -0.0520   -3.0662    0.0000 O   0  0  0  0  0  0  0  0  0  0  0  0
   -0.0982   -1.5967    0.0000 C   0  0  0  0  0  0  0  0  0  0  0  0
    2.1691    0.8098    0.0000 C   0  0  0  0  0  0  0  0  0  0  0  0
    3.5978    0.7800    0.0000 C   0  0  0  0  0  0  0  0  0  0  0  0
   -0.0526   -0.3542    0.0000 C   0  0  0  0  0  0  0  0  0  0  0  0
    0.7145    0.8250    0.0000 O   0  0  0  0  0  0  0  0  0  0  0  0
   -0.9167   -1.4934    0.0000 O   0  0  0  0  0  0  0  0  0  0  0  0
    2.1865    1.6346    0.0000 O   0  0  0  0  0  0  0  0  0  0  0  0
  1  2  1  0  0  0  0 
  1  3  1  0  0  0  0 
  2  4  1  0  0  0  0 
  2  5  1  0  0  0  0 
  3  6  1  0  0  0  0 
  3  7  1  0  0  0  0 
  4  8  2  0  0  0  0 
  5  9  1  0  0  0  0 
  5 10  1  0  0  0  0 
  5 11  1  0  0  0  0 
  6 12  1  0  0  0  0 
  6 13  1  0  0  0  0 
  7 14  1  0  0  0  0 
  7 15  1  0  0  0  0 
  8 16  1  0  0  0  0 
  8 17  1  0  0  0  0 
  9 18  1  0  0  0  0 
 11 19  1  0  0  0  0 
 15 20  1  0  0  0  0 
 16 21  1  0  0  0  0 
  6  9  1  0  0  0  0 
  9 15  1  0  0  0  0 
 10 16  1  0  0  0  0 
 12 13  1  0  0  0  0 
M  END
> <ID>
CHEBI:201500

> <NAME>
T-2 Tetraol

$$$$

CDK     1029232200

 41 46  0  0  0  0  0  0  0  0999 V2000
    0.7715    0.0853    0.0000 O   0  0  0  0  0  0  0  0  0  0  0  0
    0.7145    0.8250    0.0000 C   0  0  0  0  0  0  0  0  0  0  0  0
    0.0000    1.2375    0.0000 O   0  0  0  0  0  0  0  0  0  0  0  0
    1.4289    1.2375    0.0000 C   0  0  0  0  0  0  0  0  0  0  0  0
   -0.8071    0.8300    0.0000 C   0  0  0  0  0  0  0  0  0  0  0  0
    2.1435    0.8250    0.0000 C   0  0  0  0  0  0  0  0  0  0  0  0
   -0.7879    0.3061    0.0000 C   0  0  1  0  0  0  0  0  0  0  0  0
    2.1435    0.0000    0.0000 C   0  0  1  0  0  0  0  0  0  0  0  0
    2.8579    1.2375    0.0000 C   0  0  0  0  0  0  0  0  0  0  0  0
   -0.1118   -0.5907    0.0000 C   0  0  2  0  0  0  0  0  0  0  0  0
   -1.6301    0.1507    0.0000 C   0  0  0  0  0  0  0  0  0  0  0  0
   -0.5626    1.1507    0.0000 C   0  0  0  0  0  0  0  0  0  0  0  0
    1.4289   -0.4125    0.0000 O   0  0  0  0  0  0  0  0  0  0  0  0
    2.8579   -0.4125    0.0000 C   0  0  0  0  0  0  0  0  0  0  0  0
    3.5724    0.8250    0.0000 C   0  0  0  0  0  0  0  0  0  0  0  0
   -0.9341   -0.6579    0.0000 C   0  0  2  0  0  0  0  0  0  0  0  0
    0.2020   -1.3486    0.0000 C   0  0  2  0  0  0  0  0  0  0  0  0
    0.5706   -0.2149    0.0000 C   0  0  0  0  0  0  0  0  0  0  0  0
   -1.9092   -0.6539    0.0000 O   0  0  0  0  0  0  0  0  0  0  0  0
   -2.1573    0.7655    0.0000 C   0  0  0  0  0  0  0  0  0  0  0  0
   -1.0735    1.6968    0.0000 C   0  0  0  0  0  0  0  0  0  0  0  0
    1.4289   -1.2375    0.0000 C   0  0  0  0  0  0  0  0  0  0  0  0
    3.5724    0.0000    0.0000 O   0  0  0  0  0  0  0  0  0  0  0  0
    2.8579   -1.2375    0.0000 C   0  0  0  0  0  0  0  0  0  0  0  0
    3.5724   -0.8250    0.0000 C   0  0  0  0  0  0  0  0  0  0  0  0
   -1.1133    0.0957    0.0000 O   0  0  0  0  0  0  0  0  0  0  0  0
   -1.1242   -1.4607    0.0000 C   0  0  0  0  0  0  0  0  0  0  0  0
   -1.6209   -0.3913    0.0000 C   0  0  0  0  0  0  0  0  0  0  0  0
    0.7699   -1.7877    0.0000 O   0  0  0  0  0  0  0  0  0  0  0  0
   -0.4195   -1.8896    0.0000 C   0  0  0  0  0  0  0  0  0  0  0  0
   -1.8843    1.5440    0.0000 C   0  0  0  0  0  0  0  0  0  0  0  0
    1.9478   -1.7152    0.0000 O   0  0  0  0  0  0  0  0  0  0  0  0
    0.5191   -1.6039    0.0000 C   0  0  0  0  0  0  0  0  0  0  0  0
    2.2413   -1.6174    0.0000 C   0  0  0  0  0  0  0  0  0  0  0  0
    3.5724   -1.6500    0.0000 O   0  0  0  0  0  0  0  0  0  0  0  0
    4.2869   -0.4125    0.0000 C   0  0  0  0  0  0  0  0  0  0  0  0
    0.7145   -2.4750    0.0000 C   0  0  0  0  0  0  0  0  0  0  0  0
   -2.4220    2.1697    0.0000 C   0  0  0  0  0  0  0  0  0  0  0  0
    2.1435   -2.4750    0.0000 C   0  0  0  0  0  0  0  0  0  0  0  0
    0.0000   -2.8875    0.0000 O   0  0  0  0  0  0  0  0  0  0  0  0
    1.4289   -2.8875    0.0000 C   0  0  0  0  0  0  0  0  0  0  0  0
  1  2  2  0  0  0  0 
  2  3  1  0  0  0  0 
  2  4  1  0  0  0  0 
  3  5  1  0  0  0  0 
  4  6  2  3  0  0  0 
  7  5  1  1  0  0  0 
  8  6  1  0  0  0  0 
  6  9  1  0  0  0  0 
 10  7  1  0  0  0  0 
  7 11  1  0  0  0  0 
  7 12  1  0  0  0  0 
  8 13  1  6  0  0  0 
  8 14  1  0  0  0  0 
  9 15  1  0  0  0  0 
 16 10  1  0  0  0  0 
 17 10  1  0  0  0  0 
 10 18  1  6  0  0  0 
 11 19  1  0  0  0  0 
 11 20  1  0  0  0  0 
 12 21  1  0  0  0  0 
 13 22  1  0  0  0  0 
 14 23  1  0  0  0  0 
 14 24  1  0  0  0  0 
 14 25  1  0  0  0  0 
 16 26  1  1  0  0  0 
 16 27  1  0  0  0  0 
 16 28  1  0  0  0  0 
 17 29  1  6  0  0  0 
 17 30  1  0  0  0  0 
 20 31  2  0  0  0  0 
 22 32  2  0  0  0  0 
 22 33  1  0  0  0  0 
 24 34  2  3  0  0  0 
 25 35  1  0  0  0  0 
 25 36  1  0  0  0  0 
 29 37  1  0  0  0  0 
 31 38  1  0  0  0  0 
 34 39  1  0  0  0  0 
 37 40  2  0  0  0  0 
 37 41  1  0  0  0  0 
 15 23  1  0  0  0  0 
 19 27  1  0  0  0  0 
 21 31  1  0  0  0  0 
 26 28  1  0  0  0  0 
 27 30  1  0  0  0  0 
 39 41  2  0  0  0  0 
M  END
> <ID>
CHEBI:202328

> <NAME>
Satratoxin H 12'-acetate

$$$$

CDK     1029232201

 36 40  0  0  0  0  0  0  0  0999 V2000
    2.7205   -3.0824    0.0000 O   0  0  0  0  0  0  0  0  0  0  0  0
    2.0095   -2.6640    0.0000 C   0  0  0  0  0  0  0  0  0  0  0  0
    2.0139   -1.8257    0.0000 O   0  0  0  0  0  0  0  0  0  0  0  0
    1.2916   -3.0706    0.0000 C   0  0  0  0  0  0  0  0  0  0  0  0
    1.3979   -1.4264    0.0000 C   0  0  0  0  0  0  0  0  0  0  0  0
    0.5806   -2.6521    0.0000 C   0  0  0  0  0  0  0  0  0  0  0  0
    1.3830   -0.9024    0.0000 C   0  0  0  0  0  0  0  0  0  0  0  0
   -0.1373   -3.0587    0.0000 C   0  0  0  0  0  0  0  0  0  0  0  0
    0.5874   -1.8272    0.0000 C   0  0  0  0  0  0  0  0  0  0  0  0
    0.7145    0.0000    0.0000 C   0  0  0  0  0  0  0  0  0  0  0  0
    2.2264   -0.7539    0.0000 C   0  0  2  0  0  0  0  0  0  0  0  0
    1.1059   -1.6815    0.0000 C   0  0  0  0  0  0  0  0  0  0  0  0
   -0.8483   -2.6402    0.0000 C   0  0  0  0  0  0  0  0  0  0  0  0
    1.5372    0.0604    0.0000 C   0  0  0  0  0  0  0  0  0  0  0  0
    0.4028    0.7638    0.0000 C   0  0  0  0  0  0  0  0  0  0  0  0
    0.0000   -0.4125    0.0000 C   0  0  0  0  0  0  0  0  0  0  0  0
    2.5123    0.0483    0.0000 O   0  0  0  0  0  0  0  0  0  0  0  0
    2.7485   -1.3731    0.0000 C   0  0  0  0  0  0  0  0  0  0  0  0
    1.6280   -2.2952    0.0000 C   0  0  0  0  0  0  0  0  0  0  0  0
   -1.5661   -3.0468    0.0000 O   0  0  0  0  0  0  0  0  0  0  0  0
    1.7102   -0.6946    0.0000 O   0  0  0  0  0  0  0  0  0  0  0  0
    1.7341    0.8616    0.0000 C   0  0  2  0  0  0  0  0  0  0  0  0
    2.2218   -0.2120    0.0000 C   0  0  0  0  0  0  0  0  0  0  0  0
   -0.1030    1.0662    0.0000 O   0  0  0  0  0  0  0  0  0  0  0  0
    1.0330    1.2963    0.0000 C   0  0  0  0  0  0  0  0  0  0  0  0
    2.4691   -2.1493    0.0000 C   0  0  0  0  0  0  0  0  0  0  0  0
   -2.2772   -2.6284    0.0000 C   0  0  0  0  0  0  0  0  0  0  0  0
   -0.8209    0.6596    0.0000 C   0  0  0  0  0  0  0  0  0  0  0  0
    0.9725    2.1191    0.0000 O   0  0  0  0  0  0  0  0  0  0  0  0
    3.0015   -2.7794    0.0000 C   0  0  0  0  0  0  0  0  0  0  0  0
   -2.9951   -3.0349    0.0000 O   0  0  0  0  0  0  0  0  0  0  0  0
   -2.2703   -1.8034    0.0000 C   0  0  0  0  0  0  0  0  0  0  0  0
   -1.5319    1.0780    0.0000 O   0  0  0  0  0  0  0  0  0  0  0  0
   -0.8277   -0.1654    0.0000 C   0  0  0  0  0  0  0  0  0  0  0  0
   -1.5524   -1.3968    0.0000 C   0  0  0  0  0  0  0  0  0  0  0  0
   -1.5456   -0.5719    0.0000 C   0  0  0  0  0  0  0  0  0  0  0  0
  1  2  2  0  0  0  0 
  2  3  1  0  0  0  0 
  2  4  1  0  0  0  0 
  3  5  1  0  0  0  0 
  4  6  2  3  0  0  0 
  5  7  1  0  0  0  0 
  6  8  1  0  0  0  0 
  6  9  1  0  0  0  0 
  7 10  1  0  0  0  0 
 11  7  1  0  0  0  0 
  7 12  1  0  0  0  0 
  8 13  1  0  0  0  0 
 10 14  1  0  0  0  0 
 10 15  1  0  0  0  0 
 10 16  1  0  0  0  0 
 11 17  1  6  0  0  0 
 11 18  1  0  0  0  0 
 12 19  1  0  0  0  0 
 13 20  1  0  0  0  0 
 14 21  1  0  0  0  0 
 22 14  1  0  0  0  0 
 14 23  1  0  0  0  0 
 15 24  1  0  0  0  0 
 15 25  1  0  0  0  0 
 18 26  2  0  0  0  0 
 20 27  1  0  0  0  0 
 24 28  1  0  0  0  0 
 25 29  1  0  0  0  0 
 26 30  1  0  0  0  0 
 27 31  2  0  0  0  0 
 27 32  1  0  0  0  0 
 28 33  2  0  0  0  0 
 28 34  1  0  0  0  0 
 32 35  2  0  0  0  0 
 34 36  2  0  0  0  0 
 22 17  1  1  0  0  0 
 19 26  1  0  0  0  0 
 21 23  1  0  0  0  0 
 22 25  1  0  0  0  0 
 35 36  1  0  0  0  0 
M  END
> <ID>
CHEBI:202594

> <NAME>
Verrucarin M

$$$$

CDK     1029232201

 38 41  0  0  0  0  0  0  0  0999 V2000
    6.8008   -2.4713    0.0000 O   0  0  0  0  0  0  0  0  0  0  0  0
    7.6194   -2.5747    0.0000 C   0  0  0  0  0  0  0  0  0  0  0  0
    8.1181   -1.9176    0.0000 O   0  0  0  0  0  0  0  0  0  0  0  0
    7.9391   -3.3353    0.0000 C   0  0  0  0  0  0  0  0  0  0  0  0
    7.7984   -1.1570    0.0000 C   0  0  0  0  0  0  0  0  0  0  0  0
    7.4403   -3.9924    0.0000 C   0  0  0  0  0  0  0  0  0  0  0  0
    8.2912   -0.5241    0.0000 C   0  0  1  0  0  0  0  0  0  0  0  0
    7.7600   -4.7530    0.0000 C   0  0  0  0  0  0  0  0  0  0  0  0
    6.6218   -3.8891    0.0000 C   0  0  0  0  0  0  0  0  0  0  0  0
    7.1841   -0.3355    0.0000 C   0  0  2  0  0  0  0  0  0  0  0  0
    8.7972    0.1668    0.0000 C   0  0  2  0  0  0  0  0  0  0  0  0
    8.6327   -1.2535    0.0000 C   0  0  0  0  0  0  0  0  0  0  0  0
    7.2612   -5.4101    0.0000 C   0  0  0  0  0  0  0  0  0  0  0  0
    7.7361    0.2775    0.0000 C   0  0  0  0  0  0  0  0  0  0  0  0
    6.4304    0.0000    0.0000 C   0  0  2  0  0  0  0  0  0  0  0  0
    6.9539   -1.1278    0.0000 C   0  0  0  0  0  0  0  0  0  0  0  0
    8.4483    0.9437    0.0000 O   0  0  0  0  0  0  0  0  0  0  0  0
    9.6026    0.0813    0.0000 C   0  0  0  0  0  0  0  0  0  0  0  0
    9.4532   -1.3397    0.0000 C   0  0  0  0  0  0  0  0  0  0  0  0
    7.5810   -6.1707    0.0000 O   0  0  0  0  0  0  0  0  0  0  0  0
    8.3835   -0.1477    0.0000 O   0  0  0  0  0  0  0  0  0  0  0  0
    7.3236    0.9920    0.0000 C   0  0  2  0  0  0  0  0  0  0  0  0
    8.4187    0.5548    0.0000 C   0  0  0  0  0  0  0  0  0  0  0  0
    5.7159   -0.4125    0.0000 O   0  0  0  0  0  0  0  0  0  0  0  0
    6.5167    0.8205    0.0000 C   0  0  0  0  0  0  0  0  0  0  0  0
    9.9382   -0.6723    0.0000 C   0  0  0  0  0  0  0  0  0  0  0  0
    5.0014    0.0000    0.0000 C   0  0  0  0  0  0  0  0  0  0  0  0
   10.7586   -0.7585    0.0000 C   0  0  0  0  0  0  0  0  0  0  0  0
    5.0014    0.8250    0.0000 O   0  0  0  0  0  0  0  0  0  0  0  0
    4.2870   -0.4125    0.0000 C   0  0  0  0  0  0  0  0  0  0  0  0
    3.5724    0.0000    0.0000 C   0  0  0  0  0  0  0  0  0  0  0  0
    3.5724    0.8250    0.0000 C   0  0  0  0  0  0  0  0  0  0  0  0
    2.8579    1.2375    0.0000 C   0  0  0  0  0  0  0  0  0  0  0  0
    2.8579    2.0625    0.0000 C   0  0  2  0  0  0  0  0  0  0  0  0
    3.5724    2.4751    0.0000 O   0  0  0  0  0  0  0  0  0  0  0  0
    2.1435    2.4751    0.0000 C   0  0  2  0  0  0  0  0  0  0  0  0
    1.4290    2.0625    0.0000 O   0  0  0  0  0  0  0  0  0  0  0  0
    2.1435    3.3001    0.0000 C   0  0  0  0  0  0  0  0  0  0  0  0
  1  2  2  0  0  0  0 
  2  3  1  0  0  0  0 
  2  4  1  0  0  0  0 
  3  5  1  0  0  0  0 
  4  6  2  0  0  0  0 
  7  5  1  1  0  0  0 
  6  8  1  0  0  0  0 
  6  9  1  0  0  0  0 
 10  7  1  0  0  0  0 
 11  7  1  0  0  0  0 
  7 12  1  0  0  0  0 
  8 13  1  0  0  0  0 
 10 14  1  0  0  0  0 
 15 10  1  0  0  0  0 
 10 16  1  6  0  0  0 
 11 17  1  6  0  0  0 
 11 18  1  0  0  0  0 
 12 19  1  0  0  0  0 
 13 20  1  0  0  0  0 
 14 21  1  0  0  0  0 
 22 14  1  0  0  0  0 
 14 23  1  0  0  0  0 
 15 24  1  6  0  0  0 
 15 25  1  0  0  0  0 
 18 26  2  0  0  0  0 
 24 27  1  0  0  0  0 
 26 28  1  0  0  0  0 
 27 29  2  0  0  0  0 
 27 30  1  0  0  0  0 
 30 31  2  0  0  0  0 
 31 32  1  0  0  0  0 
 32 33  2  0  0  0  0 
 34 33  1  0  0  0  0 
 34 35  1  1  0  0  0 
 36 34  1  0  0  0  0 
 36 37  1  6  0  0  0 
 36 38  1  0  0  0  0 
 22 17  1  1  0  0  0 
 19 26  1  0  0  0  0 
 21 23  1  0  0  0  0 
 22 25  1  0  0  0  0 
M  END
> <ID>
CHEBI:202922

> <NAME>
Trichoverrin B

$$$$

CDK     1029232202

 30 33  0  0  0  0  0  0  0  0999 V2000
    3.5723    0.8250    0.0000 O   0  0  0  0  0  0  0  0  0  0  0  0
    3.5723    0.0000    0.0000 C   0  0  0  0  0  0  0  0  0  0  0  0
    4.2869   -0.4125    0.0000 O   0  0  0  0  0  0  0  0  0  0  0  0
    2.8579   -0.4125    0.0000 C   0  0  0  0  0  0  0  0  0  0  0  0
    5.0013    0.0000    0.0000 C   0  0  0  0  0  0  0  0  0  0  0  0
    2.1434    0.0000    0.0000 C   0  0  0  0  0  0  0  0  0  0  0  0
    5.6909   -0.4096    0.0000 C   0  0  0  0  0  0  0  0  0  0  0  0
    1.4290   -0.4125    0.0000 C   0  0  0  0  0  0  0  0  0  0  0  0
    2.1434    0.8250    0.0000 C   0  0  0  0  0  0  0  0  0  0  0  0
    5.7393    0.7124    0.0000 C   0  0  2  0  0  0  0  0  0  0  0  0
    6.4399   -0.8250    0.0000 C   0  0  0  0  0  0  0  0  0  0  0  0
    5.0101   -0.8398    0.0000 C   0  0  0  0  0  0  0  0  0  0  0  0
    0.7144    0.0000    0.0000 C   0  0  0  0  0  0  0  0  0  0  0  0
    6.4167    0.2415    0.0000 C   0  0  0  0  0  0  0  0  0  0  0  0
    5.9778    1.5022    0.0000 C   0  0  2  0  0  0  0  0  0  0  0  0
    4.9244    0.8414    0.0000 C   0  0  0  0  0  0  0  0  0  0  0  0
    7.1668   -0.3815    0.0000 O   0  0  0  0  0  0  0  0  0  0  0  0
    6.4559   -1.6348    0.0000 C   0  0  0  0  0  0  0  0  0  0  0  0
    5.0273   -1.6647    0.0000 C   0  0  0  0  0  0  0  0  0  0  0  0
    0.0000   -0.4125    0.0000 O   0  0  0  0  0  0  0  0  0  0  0  0
    6.0760   -0.4541    0.0000 O   0  0  0  0  0  0  0  0  0  0  0  0
    7.0739    0.7403    0.0000 C   0  0  2  0  0  0  0  0  0  0  0  0
    6.7773   -0.4009    0.0000 C   0  0  0  0  0  0  0  0  0  0  0  0
    5.4790    2.1594    0.0000 O   0  0  0  0  0  0  0  0  0  0  0  0
    6.8026    1.5194    0.0000 C   0  0  0  0  0  0  0  0  0  0  0  0
    5.7502   -2.0622    0.0000 C   0  0  0  0  0  0  0  0  0  0  0  0
    5.7988    2.9198    0.0000 C   0  0  0  0  0  0  0  0  0  0  0  0
    5.7675   -2.8869    0.0000 C   0  0  0  0  0  0  0  0  0  0  0  0
    6.6172    3.0232    0.0000 O   0  0  0  0  0  0  0  0  0  0  0  0
    5.3000    3.5770    0.0000 C   0  0  0  0  0  0  0  0  0  0  0  0
  1  2  2  0  0  0  0 
  2  3  1  0  0  0  0 
  2  4  1  0  0  0  0 
  3  5  1  0  0  0  0 
  4  6  2  0  0  0  0 
  5  7  1  0  0  0  0 
  6  8  1  0  0  0  0 
  6  9  1  0  0  0  0 
 10  7  1  0  0  0  0 
  7 11  1  0  0  0  0 
  7 12  1  0  0  0  0 
  8 13  1  0  0  0  0 
 10 14  1  0  0  0  0 
 15 10  1  0  0  0  0 
 10 16  1  6  0  0  0 
 11 17  1  0  0  0  0 
 11 18  1  0  0  0  0 
 12 19  1  0  0  0  0 
 13 20  1  0  0  0  0 
 14 21  1  0  0  0  0 
 22 14  1  0  0  0  0 
 14 23  1  0  0  0  0 
 15 24  1  6  0  0  0 
 15 25  1  0  0  0  0 
 18 26  2  0  0  0  0 
 24 27  1  0  0  0  0 
 26 28  1  0  0  0  0 
 27 29  2  0  0  0  0 
 27 30  1  0  0  0  0 
 22 17  1  1  0  0  0 
 19 26  1  0  0  0  0 
 21 23  1  0  0  0  0 
 22 25  1  0  0  0  0 
M  END
> <ID>
CHEBI:203855

> <NAME>
Verrol 4-acetate

$$$$

CDK     1029232202

 30 33  0  0  0  0  0  0  0  0999 V2000
    0.0351   -2.1219    0.0000 O   0  0  0  0  0  0  0  0  0  0  0  0
    0.7408   -1.6945    0.0000 C   0  0  0  0  0  0  0  0  0  0  0  0
    1.4637   -2.0920    0.0000 O   0  0  0  0  0  0  0  0  0  0  0  0
    0.7235   -0.8697    0.0000 C   0  0  0  0  0  0  0  0  0  0  0  0
    2.1694   -1.6647    0.0000 C   0  0  2  0  0  0  0  0  0  0  0  0
    2.8923   -2.0622    0.0000 C   0  0  0  0  0  0  0  0  0  0  0  0
    2.1522   -0.8398    0.0000 C   0  0  0  0  0  0  0  0  0  0  0  0
    3.5980   -1.6348    0.0000 C   0  0  0  0  0  0  0  0  0  0  0  0
    2.9096   -2.8869    0.0000 C   0  0  0  0  0  0  0  0  0  0  0  0
    2.8330   -0.4096    0.0000 C   0  0  1  0  0  0  0  0  0  0  0  0
    3.5820   -0.8250    0.0000 C   0  0  2  0  0  0  0  0  0  0  0  0
    2.8814    0.7124    0.0000 C   0  0  2  0  0  0  0  0  0  0  0  0
    2.1434    0.0000    0.0000 C   0  0  0  0  0  0  0  0  0  0  0  0
    4.3089   -0.3815    0.0000 O   0  0  0  0  0  0  0  0  0  0  0  0
    3.5588    0.2415    0.0000 C   0  0  2  0  0  0  0  0  0  0  0  0
    3.1199    1.5021    0.0000 C   0  0  2  0  0  0  0  0  0  0  0  0
    2.0665    0.8414    0.0000 C   0  0  0  0  0  0  0  0  0  0  0  0
    1.4290   -0.4125    0.0000 O   0  0  0  0  0  0  0  0  0  0  0  0
    4.2160    0.7403    0.0000 C   0  0  1  0  0  0  0  0  0  0  0  0
    3.2180   -0.4541    0.0000 O   0  0  0  0  0  0  0  0  0  0  0  0
    3.9194   -0.4009    0.0000 C   0  0  0  0  0  0  0  0  0  0  0  0
    2.6211    2.1593    0.0000 O   0  0  0  0  0  0  0  0  0  0  0  0
    3.9447    1.5194    0.0000 C   0  0  2  0  0  0  0  0  0  0  0  0
    0.7144    0.0000    0.0000 C   0  0  0  0  0  0  0  0  0  0  0  0
    2.9409    2.9198    0.0000 C   0  0  0  0  0  0  0  0  0  0  0  0
    4.4155    2.1968    0.0000 O   0  0  0  0  0  0  0  0  0  0  0  0
    0.7144    0.8250    0.0000 O   0  0  0  0  0  0  0  0  0  0  0  0
    0.0000   -0.4125    0.0000 C   0  0  0  0  0  0  0  0  0  0  0  0
    3.7593    3.0232    0.0000 O   0  0  0  0  0  0  0  0  0  0  0  0
    2.4421    3.5770    0.0000 C   0  0  0  0  0  0  0  0  0  0  0  0
  1  2  2  0  0  0  0 
  2  3  1  0  0  0  0 
  2  4  1  0  0  0  0 
  5  3  1  1  0  0  0 
  5  6  1  0  0  0  0 
  5  7  1  0  0  0  0 
  6  8  2  0  0  0  0 
  6  9  1  0  0  0  0 
 10  7  1  0  0  0  0 
 11  8  1  0  0  0  0 
 12 10  1  0  0  0  0 
 10 13  1  1  0  0  0 
 11 14  1  6  0  0  0 
 15 12  1  0  0  0  0 
 16 12  1  0  0  0  0 
 12 17  1  6  0  0  0 
 13 18  1  0  0  0  0 
 19 14  1  1  0  0  0 
 15 20  1  6  0  0  0 
 15 21  1  0  0  0  0 
 16 22  1  6  0  0  0 
 23 16  1  0  0  0  0 
 18 24  1  0  0  0  0 
 22 25  1  0  0  0  0 
 23 26  1  1  0  0  0 
 24 27  2  0  0  0  0 
 24 28  1  0  0  0  0 
 25 29  2  0  0  0  0 
 25 30  1  0  0  0  0 
 10 11  1  0  0  0  0 
 15 19  1  0  0  0  0 
 19 23  1  0  0  0  0 
 20 21  1  0  0  0  0 
M  END
> <ID>
CHEBI:203948

> <NAME>
8-acetylneosolaniol

$$$$

CDK     1029232202

 38 43  0  0  0  0  0  0  0  0999 V2000
    1.2916   -3.0706    0.0000 O   0  0  0  0  0  0  0  0  0  0  0  0
    0.5806   -2.6522    0.0000 C   0  0  0  0  0  0  0  0  0  0  0  0
    0.5875   -1.8272    0.0000 O   0  0  0  0  0  0  0  0  0  0  0  0
   -0.1373   -3.0587    0.0000 C   0  0  0  0  0  0  0  0  0  0  0  0
    1.3949   -1.4359    0.0000 C   0  0  0  0  0  0  0  0  0  0  0  0
   -0.8483   -2.6403    0.0000 C   0  0  0  0  0  0  0  0  0  0  0  0
    1.3831   -0.9024    0.0000 C   0  0  1  0  0  0  0  0  0  0  0  0
   -0.8414   -1.8154    0.0000 C   0  0  0  0  0  0  0  0  0  0  0  0
   -1.5662   -3.0469    0.0000 C   0  0  0  0  0  0  0  0  0  0  0  0
    0.7145    0.0000    0.0000 C   0  0  2  0  0  0  0  0  0  0  0  0
    2.2265   -0.7539    0.0000 C   0  0  2  0  0  0  0  0  0  0  0  0
    1.1441   -1.7499    0.0000 C   0  0  0  0  0  0  0  0  0  0  0  0
   -0.1230   -1.4099    0.0000 O   0  0  0  0  0  0  0  0  0  0  0  0
   -1.5967   -1.3679    0.0000 C   0  0  0  0  0  0  0  0  0  0  0  0
    1.5372    0.0604    0.0000 C   0  0  0  0  0  0  0  0  0  0  0  0
    0.4028    0.7639    0.0000 C   0  0  2  0  0  0  0  0  0  0  0  0
    0.0000   -0.4125    0.0000 C   0  0  0  0  0  0  0  0  0  0  0  0
    2.5123    0.0483    0.0000 O   0  0  0  0  0  0  0  0  0  0  0  0
    2.7486   -1.3731    0.0000 C   0  0  0  0  0  0  0  0  0  0  0  0
    1.6571   -2.2954    0.0000 C   0  0  0  0  0  0  0  0  0  0  0  0
   -1.5036   -0.5481    0.0000 O   0  0  0  0  0  0  0  0  0  0  0  0
   -2.4051   -1.5327    0.0000 O   0  0  0  0  0  0  0  0  0  0  0  0
    1.7102   -0.6947    0.0000 O   0  0  0  0  0  0  0  0  0  0  0  0
    1.7341    0.8616    0.0000 C   0  0  2  0  0  0  0  0  0  0  0  0
    2.2218   -0.2119    0.0000 C   0  0  0  0  0  0  0  0  0  0  0  0
   -0.1030    1.0662    0.0000 O   0  0  0  0  0  0  0  0  0  0  0  0
    1.0329    1.2963    0.0000 C   0  0  0  0  0  0  0  0  0  0  0  0
    2.4691   -2.1493    0.0000 C   0  0  0  0  0  0  0  0  0  0  0  0
   -2.2545   -0.2063    0.0000 C   0  0  0  0  0  0  0  0  0  0  0  0
   -2.8116   -0.8148    0.0000 C   0  0  0  0  0  0  0  0  0  0  0  0
   -0.0961    1.8912    0.0000 C   0  0  0  0  0  0  0  0  0  0  0  0
    3.0016   -2.7795    0.0000 C   0  0  0  0  0  0  0  0  0  0  0  0
   -2.2498    0.6715    0.0000 C   0  0  0  0  0  0  0  0  0  0  0  0
   -3.6314   -0.7217    0.0000 C   0  0  0  0  0  0  0  0  0  0  0  0
    0.6217    2.2977    0.0000 O   0  0  0  0  0  0  0  0  0  0  0  0
   -0.8072    2.3096    0.0000 C   0  0  0  0  0  0  0  0  0  0  0  0
   -1.5319    1.0780    0.0000 C   0  0  0  0  0  0  0  0  0  0  0  0
   -1.5250    1.9031    0.0000 C   0  0  0  0  0  0  0  0  0  0  0  0
  1  2  2  0  0  0  0 
  2  3  1  0  0  0  0 
  2  4  1  0  0  0  0 
  3  5  1  0  0  0  0 
  4  6  2  0  0  0  0 
  7  5  1  1  0  0  0 
  6  8  1  0  0  0  0 
  6  9  1  0  0  0  0 
 10  7  1  0  0  0  0 
 11  7  1  0  0  0  0 
  7 12  1  0  0  0  0 
  8 13  1  0  0  0  0 
  8 14  1  0  0  0  0 
 10 15  1  0  0  0  0 
 16 10  1  0  0  0  0 
 10 17  1  6  0  0  0 
 11 18  1  6  0  0  0 
 11 19  1  0  0  0  0 
 12 20  1  0  0  0  0 
 14 21  1  0  0  0  0 
 14 22  1  0  0  0  0 
 15 23  1  0  0  0  0 
 24 15  1  0  0  0  0 
 15 25  1  0  0  0  0 
 16 26  1  6  0  0  0 
 16 27  1  0  0  0  0 
 19 28  2  0  0  0  0 
 21 29  1  0  0  0  0 
 22 30  1  0  0  0  0 
 26 31  1  0  0  0  0 
 28 32  1  0  0  0  0 
 29 33  1  0  0  0  0 
 30 34  1  0  0  0  0 
 31 35  2  0  0  0  0 
 31 36  1  0  0  0  0 
 33 37  2  0  0  0  0 
 36 38  2  0  0  0  0 
 24 18  1  1  0  0  0 
 20 28  1  0  0  0  0 
 23 25  1  0  0  0  0 
 24 27  1  0  0  0  0 
 29 30  1  0  0  0  0 
 37 38  1  0  0  0  0 
M  END
> <ID>
CHEBI:204103

> <NAME>
Roridin J

$$$$

CDK     1029232202

 44 48  0  0  0  0  0  0  0  0999 V2000
    5.7460    4.1765    0.0000 O   0  0  0  0  0  0  0  0  0  0  0  0
    4.9353    4.3293    0.0000 C   0  0  0  0  0  0  0  0  0  0  0  0
    4.3976    3.7036    0.0000 O   0  0  0  0  0  0  0  0  0  0  0  0
    4.6622    5.1079    0.0000 C   0  0  0  0  0  0  0  0  0  0  0  0
    4.5888    3.1463    0.0000 C   0  0  1  0  0  0  0  0  0  0  0  0
    3.8516    5.2607    0.0000 C   0  0  0  0  0  0  0  0  0  0  0  0
    4.3339    2.3616    0.0000 C   0  0  2  0  0  0  0  0  0  0  0  0
    5.4138    3.1463    0.0000 C   0  0  0  0  0  0  0  0  0  0  0  0
    3.5785    6.0392    0.0000 C   0  0  0  0  0  0  0  0  0  0  0  0
    4.2621    1.2409    0.0000 C   0  0  1  0  0  0  0  0  0  0  0  0
    5.0013    1.8767    0.0000 C   0  0  2  0  0  0  0  0  0  0  0  0
    3.5713    2.5214    0.0000 C   0  0  0  0  0  0  0  0  0  0  0  0
    5.6687    2.3616    0.0000 C   0  0  2  0  0  0  0  0  0  0  0  0
    2.7678    6.1920    0.0000 C   0  0  0  0  0  0  0  0  0  0  0  0
    5.0021    0.8099    0.0000 C   0  0  2  0  0  0  0  0  0  0  0  0
    3.9353    0.8310    0.0000 C   0  0  0  0  0  0  0  0  0  0  0  0
    3.5408    0.7473    0.0000 C   0  0  0  0  0  0  0  0  0  0  0  0
    4.6461    1.1884    0.0000 O   0  0  0  0  0  0  0  0  0  0  0  0
    5.3484    1.2269    0.0000 C   0  0  0  0  0  0  0  0  0  0  0  0
    5.7383    1.2381    0.0000 O   0  0  0  0  0  0  0  0  0  0  0  0
    2.2301    5.5663    0.0000 C   0  0  1  0  0  0  0  0  0  0  0  0
    5.0013    0.0000    0.0000 C   0  0  0  0  0  0  0  0  0  0  0  0
    3.0575    1.0480    0.0000 O   0  0  0  0  0  0  0  0  0  0  0  0
    3.5724    0.0000    0.0000 C   0  0  1  0  0  0  0  0  0  0  0  0
    2.5031    4.7877    0.0000 O   0  0  0  0  0  0  0  0  0  0  0  0
    1.4193    5.7191    0.0000 C   0  0  1  0  0  0  0  0  0  0  0  0
    4.2868   -0.4125    0.0000 C   0  0  0  0  0  0  0  0  0  0  0  0
    2.7845    1.8265    0.0000 C   0  0  0  0  0  0  0  0  0  0  0  0
    2.8579   -0.4125    0.0000 O   0  0  0  0  0  0  0  0  0  0  0  0
    1.9654    4.1621    0.0000 C   0  0  0  0  0  0  0  0  0  0  0  0
    1.1463    6.4976    0.0000 O   0  0  0  0  0  0  0  0  0  0  0  0
    0.8817    5.0934    0.0000 C   0  0  0  0  0  0  0  0  0  0  0  0
    4.2868   -1.2375    0.0000 C   0  0  0  0  0  0  0  0  0  0  0  0
    3.2233    2.4247    0.0000 O   0  0  0  0  0  0  0  0  0  0  0  0
    1.9738    1.9793    0.0000 C   0  0  1  0  0  0  0  0  0  0  0  0
    2.1434    0.0000    0.0000 C   0  0  0  0  0  0  0  0  0  0  0  0
    2.2384    3.3835    0.0000 C   0  0  0  0  0  0  0  0  0  0  0  0
    1.4361    1.3536    0.0000 O   0  0  0  0  0  0  0  0  0  0  0  0
    1.7008    2.7578    0.0000 C   0  0  2  0  0  0  0  0  0  0  0  0
    2.1434    0.8250    0.0000 O   0  0  0  0  0  0  0  0  0  0  0  0
    1.4290   -0.4125    0.0000 C   0  0  0  0  0  0  0  0  0  0  0  0
    0.8900    2.9106    0.0000 C   0  0  0  0  0  0  0  0  0  0  0  0
    0.7145    0.0000    0.0000 C   0  0  0  0  0  0  0  0  0  0  0  0
    0.0000   -0.4125    0.0000 C   0  0  0  0  0  0  0  0  0  0  0  0
  1  2  2  0  0  0  0 
  2  3  1  0  0  0  0 
  2  4  1  0  0  0  0 
  5  3  1  6  0  0  0 
  4  6  2  0  0  0  0 
  7  5  1  0  0  0  0 
  5  8  1  0  0  0  0 
  6  9  1  0  0  0  0 
 10  7  1  0  0  0  0 
 11  7  1  0  0  0  0 
  7 12  1  6  0  0  0 
 13  8  1  0  0  0  0 
  9 14  2  0  0  0  0 
 15 10  1  0  0  0  0 
 10 16  1  1  0  0  0 
 10 17  1  0  0  0  0 
 11 18  1  6  0  0  0 
 11 19  1  0  0  0  0 
 13 20  1  1  0  0  0 
 21 14  1  0  0  0  0 
 15 22  1  0  0  0  0 
 16 23  1  0  0  0  0 
 24 17  1  0  0  0  0 
 21 25  1  1  0  0  0 
 26 21  1  0  0  0  0 
 22 27  2  0  0  0  0 
 23 28  1  0  0  0  0 
 24 29  1  1  0  0  0 
 25 30  1  0  0  0  0 
 26 31  1  6  0  0  0 
 26 32  1  0  0  0  0 
 27 33  1  0  0  0  0 
 28 34  2  0  0  0  0 
 35 28  1  0  0  0  0 
 29 36  1  0  0  0  0 
 30 37  1  0  0  0  0 
 35 38  1  1  0  0  0 
 39 35  1  0  0  0  0 
 36 40  2  0  0  0  0 
 36 41  1  0  0  0  0 
 39 42  1  1  0  0  0 
 41 43  2  0  0  0  0 
 43 44  1  0  0  0  0 
 11 13  1  0  0  0  0 
 15 20  1  6  0  0  0 
 18 19  1  0  0  0  0 
 24 27  1  0  0  0  0 
 37 39  1  0  0  0  0 
M  END
> <ID>
CHEBI:204435

> <NAME>
YM-47524

$$$$

CDK     1029232202

 23 26  0  0  0  0  0  0  0  0999 V2000
    5.5019   -2.0935    0.0000 O   0  0  0  0  0  0  0  0  0  0  0  0
    5.1663   -1.3397    0.0000 C   0  0  0  0  0  0  0  0  0  0  0  0
    5.6512   -0.6723    0.0000 C   0  0  0  0  0  0  0  0  0  0  0  0
    4.3458   -1.2535    0.0000 C   0  0  1  0  0  0  0  0  0  0  0  0
    5.3157    0.0813    0.0000 C   0  0  0  0  0  0  0  0  0  0  0  0
    6.4718   -0.7585    0.0000 C   0  0  0  0  0  0  0  0  0  0  0  0
    3.8608   -1.9210    0.0000 O   0  0  0  0  0  0  0  0  0  0  0  0
    4.0043   -0.5241    0.0000 C   0  0  1  0  0  0  0  0  0  0  0  0
    4.5103    0.1668    0.0000 C   0  0  0  0  0  0  0  0  0  0  0  0
    2.8971   -0.3355    0.0000 C   0  0  2  0  0  0  0  0  0  0  0  0
    3.5114   -1.1570    0.0000 C   0  0  0  0  0  0  0  0  0  0  0  0
    4.1613    0.9437    0.0000 O   0  0  0  0  0  0  0  0  0  0  0  0
    3.4492    0.2775    0.0000 C   0  0  2  0  0  0  0  0  0  0  0  0
    2.1435    0.0000    0.0000 C   0  0  0  0  0  0  0  0  0  0  0  0
    2.6670   -1.1278    0.0000 C   0  0  0  0  0  0  0  0  0  0  0  0
    3.0367    0.9920    0.0000 C   0  0  0  0  0  0  0  0  0  0  0  0
    4.0966   -0.1477    0.0000 O   0  0  0  0  0  0  0  0  0  0  0  0
    4.1318    0.5548    0.0000 C   0  0  0  0  0  0  0  0  0  0  0  0
    1.4290   -0.4125    0.0000 O   0  0  0  0  0  0  0  0  0  0  0  0
    2.2297    0.8205    0.0000 C   0  0  0  0  0  0  0  0  0  0  0  0
    0.7145    0.0000    0.0000 C   0  0  0  0  0  0  0  0  0  0  0  0
    0.7145    0.8250    0.0000 O   0  0  0  0  0  0  0  0  0  0  0  0
    0.0000   -0.4125    0.0000 C   0  0  0  0  0  0  0  0  0  0  0  0
  1  2  2  0  0  0  0 
  2  3  1  0  0  0  0 
  4  2  1  0  0  0  0 
  3  5  2  0  0  0  0 
  3  6  1  0  0  0  0 
  4  7  1  1  0  0  0 
  8  4  1  0  0  0  0 
  5  9  1  0  0  0  0 
 10  8  1  0  0  0  0 
  8 11  1  1  0  0  0 
  9 12  1  0  0  0  0 
 13 10  1  0  0  0  0 
 10 14  1  0  0  0  0 
 10 15  1  6  0  0  0 
 12 16  1  0  0  0  0 
 13 17  1  6  0  0  0 
 13 18  1  0  0  0  0 
 14 19  1  0  0  0  0 
 14 20  1  0  0  0  0 
 19 21  1  0  0  0  0 
 21 22  2  0  0  0  0 
 21 23  1  0  0  0  0 
  8  9  1  0  0  0  0 
 13 16  1  0  0  0  0 
 16 20  1  0  0  0  0 
 17 18  1  0  0  0  0 
M  END
> <ID>
CHEBI:204491

> <NAME>
(S)-7-hydroxytrichothecolone acetate

$$$$

CDK     1029232203

 41 44  0  0  0  0  0  0  0  0999 V2000
    8.2298   -2.4713    0.0000 O   0  0  0  0  0  0  0  0  0  0  0  0
    9.0483   -2.5747    0.0000 C   0  0  0  0  0  0  0  0  0  0  0  0
    9.5471   -1.9176    0.0000 O   0  0  0  0  0  0  0  0  0  0  0  0
    9.3681   -3.3353    0.0000 C   0  0  0  0  0  0  0  0  0  0  0  0
    9.2273   -1.1570    0.0000 C   0  0  0  0  0  0  0  0  0  0  0  0
    8.8693   -3.9924    0.0000 C   0  0  0  0  0  0  0  0  0  0  0  0
    9.7202   -0.5241    0.0000 C   0  0  1  0  0  0  0  0  0  0  0  0
    9.1890   -4.7530    0.0000 C   0  0  0  0  0  0  0  0  0  0  0  0
    8.0508   -3.8891    0.0000 C   0  0  0  0  0  0  0  0  0  0  0  0
    8.6130   -0.3355    0.0000 C   0  0  2  0  0  0  0  0  0  0  0  0
   10.2262    0.1668    0.0000 C   0  0  2  0  0  0  0  0  0  0  0  0
   10.0617   -1.2535    0.0000 C   0  0  0  0  0  0  0  0  0  0  0  0
    8.6902   -5.4101    0.0000 C   0  0  0  0  0  0  0  0  0  0  0  0
    9.1651    0.2775    0.0000 C   0  0  1  0  0  0  0  0  0  0  0  0
    7.8594    0.0000    0.0000 C   0  0  2  0  0  0  0  0  0  0  0  0
    8.3829   -1.1278    0.0000 C   0  0  0  0  0  0  0  0  0  0  0  0
    9.8772    0.9437    0.0000 O   0  0  0  0  0  0  0  0  0  0  0  0
   11.0316    0.0813    0.0000 C   0  0  0  0  0  0  0  0  0  0  0  0
   10.8822   -1.3397    0.0000 C   0  0  0  0  0  0  0  0  0  0  0  0
    9.0099   -6.1707    0.0000 O   0  0  0  0  0  0  0  0  0  0  0  0
    9.8125   -0.1477    0.0000 O   0  0  0  0  0  0  0  0  0  0  0  0
    8.7526    0.9920    0.0000 C   0  0  2  0  0  0  0  0  0  0  0  0
    9.8477    0.5548    0.0000 C   0  0  0  0  0  0  0  0  0  0  0  0
    7.1449   -0.4125    0.0000 O   0  0  0  0  0  0  0  0  0  0  0  0
    7.9456    0.8205    0.0000 C   0  0  0  0  0  0  0  0  0  0  0  0
   11.3671   -0.6723    0.0000 C   0  0  0  0  0  0  0  0  0  0  0  0
    6.4304    0.0000    0.0000 C   0  0  0  0  0  0  0  0  0  0  0  0
   12.1877   -0.7585    0.0000 C   0  0  0  0  0  0  0  0  0  0  0  0
    6.4304    0.8250    0.0000 O   0  0  0  0  0  0  0  0  0  0  0  0
    5.7159   -0.4125    0.0000 C   0  0  0  0  0  0  0  0  0  0  0  0
    5.0014    0.0000    0.0000 C   0  0  0  0  0  0  0  0  0  0  0  0
    5.0014    0.8250    0.0000 C   0  0  0  0  0  0  0  0  0  0  0  0
    4.2870    1.2375    0.0000 C   0  0  0  0  0  0  0  0  0  0  0  0
    4.2870    2.0625    0.0000 C   0  0  2  0  0  0  0  0  0  0  0  0
    5.0014    2.4751    0.0000 O   0  0  0  0  0  0  0  0  0  0  0  0
    3.5724    2.4751    0.0000 C   0  0  2  0  0  0  0  0  0  0  0  0
    3.5724    3.3001    0.0000 O   0  0  0  0  0  0  0  0  0  0  0  0
    2.8579    2.0625    0.0000 C   0  0  0  0  0  0  0  0  0  0  0  0
    2.8579    3.7126    0.0000 C   0  0  0  0  0  0  0  0  0  0  0  0
    2.1435    3.3001    0.0000 O   0  0  0  0  0  0  0  0  0  0  0  0
    2.8579    4.5376    0.0000 C   0  0  0  0  0  0  0  0  0  0  0  0
  1  2  2  0  0  0  0 
  2  3  1  0  0  0  0 
  2  4  1  0  0  0  0 
  3  5  1  0  0  0  0 
  4  6  2  0  0  0  0 
  7  5  1  1  0  0  0 
  6  8  1  0  0  0  0 
  6  9  1  0  0  0  0 
 10  7  1  0  0  0  0 
 11  7  1  0  0  0  0 
  7 12  1  0  0  0  0 
  8 13  1  0  0  0  0 
 14 10  1  0  0  0  0 
 15 10  1  0  0  0  0 
 10 16  1  6  0  0  0 
 11 17  1  6  0  0  0 
 11 18  1  0  0  0  0 
 12 19  1  0  0  0  0 
 13 20  1  0  0  0  0 
 14 21  1  6  0  0  0 
 22 14  1  0  0  0  0 
 14 23  1  0  0  0  0 
 15 24  1  6  0  0  0 
 15 25  1  0  0  0  0 
 18 26  2  0  0  0  0 
 24 27  1  0  0  0  0 
 26 28  1  0  0  0  0 
 27 29  2  0  0  0  0 
 27 30  1  0  0  0  0 
 30 31  2  0  0  0  0 
 31 32  1  0  0  0  0 
 32 33  2  0  0  0  0 
 34 33  1  0  0  0  0 
 34 35  1  1  0  0  0 
 36 34  1  0  0  0  0 
 36 37  1  1  0  0  0 
 36 38  1  0  0  0  0 
 37 39  1  0  0  0  0 
 39 40  2  0  0  0  0 
 39 41  1  0  0  0  0 
 22 17  1  1  0  0  0 
 19 26  1  0  0  0  0 
 21 23  1  0  0  0  0 
 22 25  1  0  0  0  0 
M  END
> <ID>
CHEBI:204619

> <NAME>
13'-Acetyltrichoverrin B

$$$$

CDK     1029232203

 38 42  0  0  0  0  0  0  0  0999 V2000
    5.2029   -1.1623    0.0000 O   0  0  0  0  0  0  0  0  0  0  0  0
    5.4759   -1.9408    0.0000 C   0  0  0  0  0  0  0  0  0  0  0  0
    4.9382   -2.5665    0.0000 O   0  0  0  0  0  0  0  0  0  0  0  0
    6.2867   -2.0936    0.0000 C   0  0  0  0  0  0  0  0  0  0  0  0
    4.3600   -2.4534    0.0000 C   0  0  1  0  0  0  0  0  0  0  0  0
    6.8243   -1.4679    0.0000 C   0  0  0  0  0  0  0  0  0  0  0  0
    3.8079   -1.8403    0.0000 C   0  0  2  0  0  0  0  0  0  0  0  0
    3.9475   -3.1678    0.0000 C   0  0  0  0  0  0  0  0  0  0  0  0
    6.5513   -0.6894    0.0000 C   0  0  0  0  0  0  0  0  0  0  0  0
    2.8731   -1.2178    0.0000 C   0  0  1  0  0  0  0  0  0  0  0  0
    3.0542   -2.1759    0.0000 C   0  0  2  0  0  0  0  0  0  0  0  0
    4.3404   -1.2101    0.0000 C   0  0  0  0  0  0  0  0  0  0  0  0
    3.1404   -2.9963    0.0000 C   0  0  2  0  0  0  0  0  0  0  0  0
    7.0890   -0.0637    0.0000 C   0  0  0  0  0  0  0  0  0  0  0  0
    2.1277   -1.6418    0.0000 C   0  0  2  0  0  0  0  0  0  0  0  0
    2.6816   -0.7298    0.0000 C   0  0  0  0  0  0  0  0  0  0  0  0
    2.8063   -0.3463    0.0000 C   0  0  0  0  0  0  0  0  0  0  0  0
    2.6358   -1.5241    0.0000 O   0  0  0  0  0  0  0  0  0  0  0  0
    2.2770   -2.2054    0.0000 C   0  0  0  0  0  0  0  0  0  0  0  0
    2.1186   -2.5250    0.0000 O   0  0  0  0  0  0  0  0  0  0  0  0
    6.8160    0.7149    0.0000 C   0  0  0  0  0  0  0  0  0  0  0  0
    1.4290   -1.2375    0.0000 C   0  0  0  0  0  0  0  0  0  0  0  0
    3.3084   -0.0781    0.0000 O   0  0  0  0  0  0  0  0  0  0  0  0
    2.1434    0.0000    0.0000 C   0  0  0  0  0  0  0  0  0  0  0  0
    7.3537    1.3405    0.0000 O   0  0  0  0  0  0  0  0  0  0  0  0
    6.0053    0.8677    0.0000 O   0  0  0  0  0  0  0  0  0  0  0  0
    1.4290   -0.4125    0.0000 C   0  0  0  0  0  0  0  0  0  0  0  0
    3.0354    0.7003    0.0000 C   0  0  0  0  0  0  0  0  0  0  0  0
    5.7323    1.6462    0.0000 C   0  0  0  0  0  0  0  0  0  0  0  0
    0.7144    0.0000    0.0000 C   0  0  0  0  0  0  0  0  0  0  0  0
    2.2247    0.8532    0.0000 O   0  0  0  0  0  0  0  0  0  0  0  0
    3.5731    1.3261    0.0000 C   0  0  1  0  0  0  0  0  0  0  0  0
    4.9215    1.7990    0.0000 C   0  0  0  0  0  0  0  0  0  0  0  0
    0.7144    0.8250    0.0000 O   0  0  0  0  0  0  0  0  0  0  0  0
    0.0000   -0.4125    0.0000 O   0  0  0  0  0  0  0  0  0  0  0  0
    3.3001    2.1046    0.0000 O   0  0  0  0  0  0  0  0  0  0  0  0
    4.3838    1.1732    0.0000 C   0  0  1  0  0  0  0  0  0  0  0  0
    4.6569    0.3948    0.0000 C   0  0  0  0  0  0  0  0  0  0  0  0
  1  2  2  0  0  0  0 
  2  3  1  0  0  0  0 
  2  4  1  0  0  0  0 
  5  3  1  6  0  0  0 
  4  6  2  0  0  0  0 
  7  5  1  0  0  0  0 
  5  8  1  0  0  0  0 
  6  9  1  0  0  0  0 
 10  7  1  0  0  0  0 
 11  7  1  0  0  0  0 
  7 12  1  6  0  0  0 
 13  8  1  0  0  0  0 
  9 14  2  0  0  0  0 
 15 10  1  0  0  0  0 
 10 16  1  1  0  0  0 
 10 17  1  0  0  0  0 
 11 18  1  6  0  0  0 
 11 19  1  0  0  0  0 
 13 20  1  1  0  0  0 
 14 21  1  0  0  0  0 
 15 22  1  0  0  0  0 
 16 23  1  0  0  0  0 
 17 24  1  0  0  0  0 
 21 25  2  0  0  0  0 
 21 26  1  0  0  0  0 
 22 27  2  0  0  0  0 
 23 28  1  0  0  0  0 
 26 29  1  0  0  0  0 
 27 30  1  0  0  0  0 
 28 31  2  0  0  0  0 
 32 28  1  0  0  0  0 
 29 33  1  0  0  0  0 
 30 34  2  0  0  0  0 
 30 35  1  0  0  0  0 
 32 36  1  1  0  0  0 
 37 32  1  0  0  0  0 
 37 38  1  1  0  0  0 
 11 13  1  0  0  0  0 
 15 20  1  6  0  0  0 
 18 19  1  0  0  0  0 
 24 27  1  0  0  0  0 
 33 37  1  0  0  0  0 
M  END
> <ID>
CHEBI:205081

> <NAME>
Verrucarin X

$$$$

CDK     1029232203

 38 42  0  0  0  0  0  0  0  0999 V2000
    9.9856    0.1913    0.0000 O   0  0  0  0  0  0  0  0  0  0  0  0
    9.1651    0.2775    0.0000 C   0  0  0  0  0  0  0  0  0  0  0  0
    8.7526    0.9920    0.0000 O   0  0  0  0  0  0  0  0  0  0  0  0
    8.6130   -0.3355    0.0000 C   0  0  0  0  0  0  0  0  0  0  0  0
    7.9456    0.8205    0.0000 C   0  0  0  0  0  0  0  0  0  0  0  0
    7.8594    0.0000    0.0000 C   0  0  0  0  0  0  0  0  0  0  0  0
    7.1449   -0.4125    0.0000 C   0  0  0  0  0  0  0  0  0  0  0  0
    6.4304    0.0000    0.0000 C   0  0  0  0  0  0  0  0  0  0  0  0
    5.7159   -0.4125    0.0000 O   0  0  0  0  0  0  0  0  0  0  0  0
    5.0014    0.0000    0.0000 C   0  0  2  0  0  0  0  0  0  0  0  0
    4.2870   -0.4125    0.0000 C   0  0  0  0  0  0  0  0  0  0  0  0
    5.0014    0.8250    0.0000 C   0  0  2  0  0  0  0  0  0  0  0  0
    3.5724    0.0000    0.0000 C   0  0  0  0  0  0  0  0  0  0  0  0
    5.7159    1.2375    0.0000 O   0  0  0  0  0  0  0  0  0  0  0  0
    4.2870    1.2375    0.0000 C   0  0  0  0  0  0  0  0  0  0  0  0
    2.8579   -0.4125    0.0000 C   0  0  0  0  0  0  0  0  0  0  0  0
    2.1435    0.0000    0.0000 C   0  0  0  0  0  0  0  0  0  0  0  0
    1.4290   -0.4125    0.0000 C   0  0  0  0  0  0  0  0  0  0  0  0
    1.4290   -1.2375    0.0000 O   0  0  0  0  0  0  0  0  0  0  0  0
    0.7145    0.0000    0.0000 O   0  0  0  0  0  0  0  0  0  0  0  0
    0.0000   -0.4125    0.0000 C   0  0  1  0  0  0  0  0  0  0  0  0
   -0.7537   -0.0770    0.0000 C   0  0  2  0  0  0  0  0  0  0  0  0
   -0.0862   -1.2330    0.0000 C   0  0  0  0  0  0  0  0  0  0  0  0
   -1.8608    0.1115    0.0000 C   0  0  2  0  0  0  0  0  0  0  0  0
   -1.3058   -0.6900    0.0000 C   0  0  2  0  0  0  0  0  0  0  0  0
   -0.5236    0.7153    0.0000 C   0  0  0  0  0  0  0  0  0  0  0  0
   -0.8932   -1.4045    0.0000 C   0  0  2  0  0  0  0  0  0  0  0  0
   -2.3668   -0.5793    0.0000 C   0  0  2  0  0  0  0  0  0  0  0  0
   -2.2024    0.8410    0.0000 C   0  0  0  0  0  0  0  0  0  0  0  0
   -1.3680    0.7445    0.0000 C   0  0  0  0  0  0  0  0  0  0  0  0
   -1.9531   -0.2648    0.0000 O   0  0  0  0  0  0  0  0  0  0  0  0
   -1.9884   -0.9673    0.0000 C   0  0  0  0  0  0  0  0  0  0  0  0
   -2.0178   -1.3562    0.0000 O   0  0  0  0  0  0  0  0  0  0  0  0
   -3.1722   -0.4939    0.0000 C   0  0  0  0  0  0  0  0  0  0  0  0
   -3.0229    0.9272    0.0000 C   0  0  0  0  0  0  0  0  0  0  0  0
   -1.6877    1.5051    0.0000 O   0  0  0  0  0  0  0  0  0  0  0  0
   -3.5078    0.2598    0.0000 C   0  0  0  0  0  0  0  0  0  0  0  0
   -4.3283    0.3460    0.0000 C   0  0  0  0  0  0  0  0  0  0  0  0
  1  2  2  0  0  0  0 
  2  3  1  0  0  0  0 
  2  4  1  0  0  0  0 
  3  5  1  0  0  0  0 
  4  6  2  0  0  0  0 
  6  7  1  0  0  0  0 
  7  8  1  0  0  0  0 
  8  9  1  0  0  0  0 
 10  9  1  6  0  0  0 
 10 11  1  0  0  0  0 
 12 10  1  0  0  0  0 
 11 13  2  0  0  0  0 
 12 14  1  1  0  0  0 
 12 15  1  0  0  0  0 
 13 16  1  0  0  0  0 
 16 17  2  0  0  0  0 
 17 18  1  0  0  0  0 
 18 19  2  0  0  0  0 
 18 20  1  0  0  0  0 
 21 20  1  6  0  0  0 
 22 21  1  0  0  0  0 
 21 23  1  0  0  0  0 
 24 22  1  0  0  0  0 
 25 22  1  0  0  0  0 
 22 26  1  6  0  0  0 
 27 23  1  0  0  0  0 
 28 24  1  0  0  0  0 
 24 29  1  0  0  0  0 
 24 30  1  1  0  0  0 
 25 31  1  6  0  0  0 
 25 32  1  0  0  0  0 
 27 33  1  1  0  0  0 
 28 34  1  0  0  0  0 
 29 35  1  0  0  0  0 
 30 36  1  0  0  0  0 
 34 37  2  0  0  0  0 
 37 38  1  0  0  0  0 
  5  6  1  0  0  0  0 
 25 27  1  0  0  0  0 
 28 33  1  6  0  0  0 
 31 32  1  0  0  0  0 
 35 37  1  0  0  0  0 
M  END
> <ID>
CHEBI:205397

> <NAME>
(2'E)-Roridin L-2

$$$$

CDK     1029232204

 38 42  0  0  0  0  0  0  0  0999 V2000
    2.2246    0.8532    0.0000 O   0  0  0  0  0  0  0  0  0  0  0  0
    3.0354    0.7004    0.0000 C   0  0  0  0  0  0  0  0  0  0  0  0
    3.3084   -0.0781    0.0000 O   0  0  0  0  0  0  0  0  0  0  0  0
    3.5731    1.3261    0.0000 C   0  0  0  0  0  0  0  0  0  0  0  0
    2.6812   -0.7199    0.0000 C   0  0  0  0  0  0  0  0  0  0  0  0
    4.3838    1.1733    0.0000 C   0  0  0  0  0  0  0  0  0  0  0  0
    2.8732   -1.2178    0.0000 C   0  0  1  0  0  0  0  0  0  0  0  0
    4.9215    1.7990    0.0000 C   0  0  0  0  0  0  0  0  0  0  0  0
    4.6568    0.3948    0.0000 C   0  0  0  0  0  0  0  0  0  0  0  0
    3.8079   -1.8403    0.0000 C   0  0  2  0  0  0  0  0  0  0  0  0
    2.1147   -1.6313    0.0000 C   0  0  2  0  0  0  0  0  0  0  0  0
    2.8109   -0.3395    0.0000 C   0  0  0  0  0  0  0  0  0  0  0  0
    5.7322    1.6461    0.0000 C   0  0  0  0  0  0  0  0  0  0  0  0
    3.0542   -2.1759    0.0000 C   0  0  1  0  0  0  0  0  0  0  0  0
    4.3599   -2.4534    0.0000 C   0  0  2  0  0  0  0  0  0  0  0  0
    4.3404   -1.2101    0.0000 C   0  0  0  0  0  0  0  0  0  0  0  0
    2.1364   -2.4993    0.0000 O   0  0  0  0  0  0  0  0  0  0  0  0
    1.4290   -1.2375    0.0000 C   0  0  0  0  0  0  0  0  0  0  0  0
    2.1434    0.0000    0.0000 C   0  0  0  0  0  0  0  0  0  0  0  0
    6.0052    0.8677    0.0000 O   0  0  0  0  0  0  0  0  0  0  0  0
    2.6357   -1.5241    0.0000 O   0  0  0  0  0  0  0  0  0  0  0  0
    3.1404   -2.9963    0.0000 C   0  0  2  0  0  0  0  0  0  0  0  0
    2.2432   -2.1272    0.0000 C   0  0  0  0  0  0  0  0  0  0  0  0
    4.9382   -2.5665    0.0000 O   0  0  0  0  0  0  0  0  0  0  0  0
    3.9474   -3.1679    0.0000 C   0  0  0  0  0  0  0  0  0  0  0  0
    1.4290   -0.4125    0.0000 C   0  0  0  0  0  0  0  0  0  0  0  0
    6.8160    0.7148    0.0000 C   0  0  2  0  0  0  0  0  0  0  0  0
    5.4759   -1.9407    0.0000 C   0  0  0  0  0  0  0  0  0  0  0  0
    0.7145    0.0000    0.0000 C   0  0  0  0  0  0  0  0  0  0  0  0
    7.0890   -0.0637    0.0000 C   0  0  0  0  0  0  0  0  0  0  0  0
    7.3537    1.3405    0.0000 C   0  0  2  0  0  0  0  0  0  0  0  0
    5.2029   -1.1623    0.0000 O   0  0  0  0  0  0  0  0  0  0  0  0
    6.2866   -2.0936    0.0000 C   0  0  0  0  0  0  0  0  0  0  0  0
    0.0000   -0.4125    0.0000 O   0  0  0  0  0  0  0  0  0  0  0  0
    6.5513   -0.6894    0.0000 C   0  0  0  0  0  0  0  0  0  0  0  0
    8.1644    1.1877    0.0000 O   0  0  0  0  0  0  0  0  0  0  0  0
    7.0807    2.1190    0.0000 C   0  0  0  0  0  0  0  0  0  0  0  0
    6.8243   -1.4679    0.0000 C   0  0  0  0  0  0  0  0  0  0  0  0
  1  2  2  0  0  0  0 
  2  3  1  0  0  0  0 
  2  4  1  0  0  0  0 
  3  5  1  0  0  0  0 
  4  6  2  0  0  0  0 
  7  5  1  1  0  0  0 
  6  8  1  0  0  0  0 
  6  9  1  0  0  0  0 
 10  7  1  0  0  0  0 
 11  7  1  0  0  0  0 
  7 12  1  0  0  0  0 
  8 13  1  0  0  0  0 
 14 10  1  0  0  0  0 
 15 10  1  0  0  0  0 
 10 16  1  6  0  0  0 
 11 17  1  6  0  0  0 
 11 18  1  0  0  0  0 
 12 19  1  0  0  0  0 
 13 20  1  0  0  0  0 
 14 21  1  6  0  0  0 
 22 14  1  0  0  0  0 
 14 23  1  0  0  0  0 
 15 24  1  6  0  0  0 
 15 25  1  0  0  0  0 
 18 26  2  0  0  0  0 
 27 20  1  1  0  0  0 
 24 28  1  0  0  0  0 
 26 29  1  0  0  0  0 
 27 30  1  0  0  0  0 
 31 27  1  0  0  0  0 
 28 32  2  0  0  0  0 
 28 33  1  0  0  0  0 
 29 34  1  0  0  0  0 
 30 35  2  0  0  0  0 
 31 36  1  1  0  0  0 
 31 37  1  0  0  0  0 
 33 38  2  0  0  0  0 
 22 17  1  1  0  0  0 
 19 26  1  0  0  0  0 
 21 23  1  0  0  0  0 
 22 25  1  0  0  0  0 
 35 38  1  0  0  0  0 
M  END
> <ID>
CHEBI:205539

> <NAME>
16-hydroxyroridin E

$$$$

CDK     1030232200

 40 47  0  0  0  0  0  0  0  0999 V2000
    0.6217    2.2977    0.0000 O   0  0  0  0  0  0  0  0  0  0  0  0
   -0.0962    1.8911    0.0000 C   0  0  0  0  0  0  0  0  0  0  0  0
   -0.1030    1.0661    0.0000 O   0  0  0  0  0  0  0  0  0  0  0  0
   -0.8072    2.3096    0.0000 C   0  0  0  0  0  0  0  0  0  0  0  0
    0.4028    0.7639    0.0000 C   0  0  1  0  0  0  0  0  0  0  0  0
   -1.5251    1.9031    0.0000 C   0  0  0  0  0  0  0  0  0  0  0  0
    0.7145    0.0000    0.0000 C   0  0  2  0  0  0  0  0  0  0  0  0
    1.0330    1.2963    0.0000 C   0  0  0  0  0  0  0  0  0  0  0  0
   -1.5753    1.1185    0.0000 C   0  0  0  0  0  0  0  0  0  0  0  0
    1.3830   -0.9024    0.0000 C   0  0  1  0  0  0  0  0  0  0  0  0
    1.5373    0.0604    0.0000 C   0  0  0  0  0  0  0  0  0  0  0  0
    0.0303   -0.3785    0.0000 C   0  0  0  0  0  0  0  0  0  0  0  0
    1.7341    0.8616    0.0000 C   0  0  2  0  0  0  0  0  0  0  0  0
   -2.2033    0.7626    0.0000 C   0  0  0  0  0  0  0  0  0  0  0  0
    2.2265   -0.7539    0.0000 C   0  0  2  0  0  0  0  0  0  0  0  0
    1.3950   -1.4359    0.0000 C   0  0  0  0  0  0  0  0  0  0  0  0
    1.1441   -1.7498    0.0000 C   0  0  0  0  0  0  0  0  0  0  0  0
    1.7102   -0.6946    0.0000 O   0  0  0  0  0  0  0  0  0  0  0  0
    2.2219   -0.2120    0.0000 C   0  0  0  0  0  0  0  0  0  0  0  0
    2.5123    0.0483    0.0000 O   0  0  0  0  0  0  0  0  0  0  0  0
   -2.3224   -0.1963    0.0000 C   0  0  2  0  0  0  0  0  0  0  0  0
    2.7486   -1.3731    0.0000 C   0  0  0  0  0  0  0  0  0  0  0  0
    0.5874   -1.8272    0.0000 O   0  0  0  0  0  0  0  0  0  0  0  0
    1.6571   -2.2954    0.0000 C   0  0  0  0  0  0  0  0  0  0  0  0
   -2.9627   -0.7166    0.0000 O   0  0  0  0  0  0  0  0  0  0  0  0
   -1.5517   -0.4906    0.0000 C   0  0  2  0  0  0  0  0  0  0  0  0
   -2.4283    0.5623    0.0000 C   0  0  0  0  0  0  0  0  0  0  0  0
    2.4691   -2.1493    0.0000 C   0  0  0  0  0  0  0  0  0  0  0  0
   -0.1236   -1.4087    0.0000 C   0  0  0  0  0  0  0  0  0  0  0  0
   -2.8322   -1.5312    0.0000 C   0  0  0  0  0  0  0  0  0  0  0  0
   -1.0336    0.1514    0.0000 O   0  0  0  0  0  0  0  0  0  0  0  0
   -1.4212   -1.3052    0.0000 C   0  0  1  0  0  0  0  0  0  0  0  0
   -2.9227    1.1458    0.0000 O   0  0  0  0  0  0  0  0  0  0  0  0
   -1.4529    0.7604    0.0000 C   0  0  0  0  0  0  0  0  0  0  0  0
    3.0016   -2.7795    0.0000 C   0  0  0  0  0  0  0  0  0  0  0  0
   -0.2141   -0.6522    0.0000 O   0  0  0  0  0  0  0  0  0  0  0  0
   -0.9009   -1.9455    0.0000 C   0  0  0  0  0  0  0  0  0  0  0  0
   -2.0615   -1.8255    0.0000 C   0  0  0  0  0  0  0  0  0  0  0  0
   -0.6066   -1.1748    0.0000 O   0  0  0  0  0  0  0  0  0  0  0  0
   -1.1524    1.6130    0.0000 O   0  0  0  0  0  0  0  0  0  0  0  0
  1  2  2  0  0  0  0 
  2  3  1  0  0  0  0 
  2  4  1  0  0  0  0 
  5  3  1  6  0  0  0 
  4  6  2  0  0  0  0 
  7  5  1  0  0  0  0 
  5  8  1  0  0  0  0 
  6  9  1  0  0  0  0 
 10  7  1  0  0  0  0 
  7 11  1  0  0  0  0 
  7 12  1  6  0  0  0 
 13  8  1  0  0  0  0 
  9 14  2  0  0  0  0 
 15 10  1  0  0  0  0 
 10 16  1  1  0  0  0 
 10 17  1  0  0  0  0 
 11 18  1  0  0  0  0 
 11 19  1  0  0  0  0 
 13 20  1  1  0  0  0 
 21 14  1  0  0  0  0 
 15 22  1  0  0  0  0 
 16 23  1  0  0  0  0 
 17 24  1  0  0  0  0 
 21 25  1  1  0  0  0 
 26 21  1  0  0  0  0 
 21 27  1  0  0  0  0 
 22 28  2  0  0  0  0 
 23 29  1  0  0  0  0 
 25 30  1  0  0  0  0 
 26 31  1  6  0  0  0 
 32 26  1  0  0  0  0 
 27 33  1  0  0  0  0 
 27 34  1  0  0  0  0 
 28 35  1  0  0  0  0 
 29 36  2  0  0  0  0 
 29 37  1  0  0  0  0 
 30 38  1  0  0  0  0 
 32 39  1  6  0  0  0 
 34 40  1  0  0  0  0 
 11 13  1  0  0  0  0 
 15 20  1  6  0  0  0 
 18 19  1  0  0  0  0 
 24 28  1  0  0  0  0 
 31 34  1  0  0  0  0 
 32 37  1  0  0  0  0 
 32 38  1  0  0  0  0 
 37 39  1  0  0  0  0 
M  END
> <ID>
CHEBI:206125

> <NAME>
Roritoxin B

$$$$

CDK     1030232200

 37 41  0  0  0  0  0  0  0  0999 V2000
    1.1938   -3.5878    0.0000 O   0  0  0  0  0  0  0  0  0  0  0  0
    0.6112   -3.0037    0.0000 C   0  0  0  0  0  0  0  0  0  0  0  0
    1.0915   -2.3329    0.0000 O   0  0  0  0  0  0  0  0  0  0  0  0
   -0.0609   -3.4822    0.0000 C   0  0  0  0  0  0  0  0  0  0  0  0
    1.3915   -1.5444    0.0000 C   0  0  0  0  0  0  0  0  0  0  0  0
   -0.8519   -3.7165    0.0000 C   0  0  0  0  0  0  0  0  0  0  0  0
    1.3830   -0.9024    0.0000 C   0  0  1  0  0  0  0  0  0  0  0  0
   -1.6762   -3.6813    0.0000 C   0  0  0  0  0  0  0  0  0  0  0  0
   -0.7509   -4.5354    0.0000 C   0  0  0  0  0  0  0  0  0  0  0  0
    0.7144    0.0000    0.0000 C   0  0  2  0  0  0  0  0  0  0  0  0
    2.2264   -0.7539    0.0000 C   0  0  2  0  0  0  0  0  0  0  0  0
    1.0265   -1.6697    0.0000 C   0  0  0  0  0  0  0  0  0  0  0  0
   -2.4443   -3.3804    0.0000 C   0  0  0  0  0  0  0  0  0  0  0  0
    1.5372    0.0604    0.0000 C   0  0  0  0  0  0  0  0  0  0  0  0
    0.4028    0.7639    0.0000 C   0  0  2  0  0  0  0  0  0  0  0  0
    0.0000   -0.4125    0.0000 C   0  0  0  0  0  0  0  0  0  0  0  0
    2.5123    0.0483    0.0000 O   0  0  0  0  0  0  0  0  0  0  0  0
    2.7486   -1.3730    0.0000 C   0  0  0  0  0  0  0  0  0  0  0  0
    1.6571   -2.2954    0.0000 C   0  0  0  0  0  0  0  0  0  0  0  0
   -3.0731   -2.8463    0.0000 O   0  0  0  0  0  0  0  0  0  0  0  0
    1.7101   -0.6946    0.0000 O   0  0  0  0  0  0  0  0  0  0  0  0
    1.7341    0.8615    0.0000 C   0  0  2  0  0  0  0  0  0  0  0  0
    2.2218   -0.2119    0.0000 C   0  0  0  0  0  0  0  0  0  0  0  0
   -0.2444    1.1043    0.0000 O   0  0  0  0  0  0  0  0  0  0  0  0
    1.0329    1.2963    0.0000 C   0  0  0  0  0  0  0  0  0  0  0  0
    2.4691   -2.1493    0.0000 C   0  0  0  0  0  0  0  0  0  0  0  0
   -3.4945   -2.1371    0.0000 C   0  0  0  0  0  0  0  0  0  0  0  0
   -1.0516    1.2747    0.0000 C   0  0  0  0  0  0  0  0  0  0  0  0
    3.0015   -2.7794    0.0000 C   0  0  0  0  0  0  0  0  0  0  0  0
   -3.6627   -1.3294    0.0000 C   0  0  0  0  0  0  0  0  0  0  0  0
   -4.2634   -2.4359    0.0000 C   0  0  0  0  0  0  0  0  0  0  0  0
   -1.0164    2.0989    0.0000 O   0  0  0  0  0  0  0  0  0  0  0  0
   -1.8704    1.1737    0.0000 C   0  0  0  0  0  0  0  0  0  0  0  0
   -4.4870   -1.3624    0.0000 O   0  0  0  0  0  0  0  0  0  0  0  0
   -3.5595   -0.5108    0.0000 C   0  0  0  0  0  0  0  0  0  0  0  0
   -2.6120    0.8124    0.0000 C   0  0  0  0  0  0  0  0  0  0  0  0
   -3.1962    0.2298    0.0000 C   0  0  0  0  0  0  0  0  0  0  0  0
  1  2  2  0  0  0  0 
  2  3  1  0  0  0  0 
  2  4  1  0  0  0  0 
  3  5  1  0  0  0  0 
  4  6  2  0  0  0  0 
  7  5  1  1  0  0  0 
  6  8  1  0  0  0  0 
  6  9  1  0  0  0  0 
 10  7  1  0  0  0  0 
 11  7  1  0  0  0  0 
  7 12  1  0  0  0  0 
  8 13  1  0  0  0  0 
 10 14  1  0  0  0  0 
 15 10  1  0  0  0  0 
 10 16  1  6  0  0  0 
 11 17  1  6  0  0  0 
 11 18  1  0  0  0  0 
 12 19  1  0  0  0  0 
 13 20  1  0  0  0  0 
 14 21  1  0  0  0  0 
 22 14  1  0  0  0  0 
 14 23  1  0  0  0  0 
 15 24  1  6  0  0  0 
 15 25  1  0  0  0  0 
 18 26  2  0  0  0  0 
 20 27  1  0  0  0  0 
 24 28  1  0  0  0  0 
 26 29  1  0  0  0  0 
 27 30  1  0  0  0  0 
 27 31  1  0  0  0  0 
 28 32  2  0  0  0  0 
 28 33  1  0  0  0  0 
 30 34  1  0  0  0  0 
 30 35  1  0  0  0  0 
 33 36  2  0  0  0  0 
 35 37  2  0  0  0  0 
 22 17  1  1  0  0  0 
 19 26  1  0  0  0  0 
 21 23  1  0  0  0  0 
 22 25  1  0  0  0  0 
 36 37  1  0  0  0  0 
M  END
> <ID>
CHEBI:206532

> <NAME>
Roridin P

$$$$

CDK     1030232200

 39 45  0  0  0  0  0  0  0  0999 V2000
    1.5991    3.8199    0.0000 O   0  0  0  0  0  0  0  0  0  0  0  0
    1.5612    2.9958    0.0000 C   0  0  0  0  0  0  0  0  0  0  0  0
    2.2560    2.5508    0.0000 O   0  0  0  0  0  0  0  0  0  0  0  0
    0.8285    2.6166    0.0000 C   0  0  0  0  0  0  0  0  0  0  0  0
    2.7811    2.8182    0.0000 C   0  0  1  0  0  0  0  0  0  0  0  0
    0.7906    1.7924    0.0000 C   0  0  0  0  0  0  0  0  0  0  0  0
    3.5936    2.6755    0.0000 C   0  0  2  0  0  0  0  0  0  0  0  0
    2.6657    3.6350    0.0000 C   0  0  0  0  0  0  0  0  0  0  0  0
    1.4854    1.3475    0.0000 C   0  0  0  0  0  0  0  0  0  0  0  0
    4.7134    2.7611    0.0000 C   0  0  1  0  0  0  0  0  0  0  0  0
    3.9805    3.4041    0.0000 C   0  0  2  0  0  0  0  0  0  0  0  0
    3.5500    1.8948    0.0000 C   0  0  0  0  0  0  0  0  0  0  0  0
    3.4070    3.9972    0.0000 C   0  0  2  0  0  0  0  0  0  0  0  0
    1.4475    0.5233    0.0000 C   0  0  0  0  0  0  0  0  0  0  0  0
    5.0367    3.5542    0.0000 C   0  0  2  0  0  0  0  0  0  0  0  0
    5.1714    2.4873    0.0000 C   0  0  0  0  0  0  0  0  0  0  0  0
    5.3037    2.1078    0.0000 C   0  0  0  0  0  0  0  0  0  0  0  0
    4.7117    3.1487    0.0000 O   0  0  0  0  0  0  0  0  0  0  0  0
    4.5754    3.8387    0.0000 C   0  0  0  0  0  0  0  0  0  0  0  0
    4.5097    4.2232    0.0000 O   0  0  0  0  0  0  0  0  0  0  0  0
    2.1434    0.0000    0.0000 C   0  0  1  0  0  0  0  0  0  0  0  0
    5.8388    3.6666    0.0000 C   0  0  0  0  0  0  0  0  0  0  0  0
    5.0729    1.5954    0.0000 O   0  0  0  0  0  0  0  0  0  0  0  0
    6.0386    2.2517    0.0000 C   0  0  0  0  0  0  0  0  0  0  0  0
    2.2431   -0.8190    0.0000 O   0  0  0  0  0  0  0  0  0  0  0  0
    1.4289   -0.4125    0.0000 O   0  0  0  0  0  0  0  0  0  0  0  0
    2.8028    0.4958    0.0000 C   0  0  2  0  0  0  0  0  0  0  0  0
    6.3471    3.0169    0.0000 C   0  0  0  0  0  0  0  0  0  0  0  0
    4.3402    1.2161    0.0000 C   0  0  0  0  0  0  0  0  0  0  0  0
    3.0022   -1.1421    0.0000 C   0  0  0  0  0  0  0  0  0  0  0  0
    0.7145    0.0000    0.0000 C   0  0  0  0  0  0  0  0  0  0  0  0
    2.7031    1.3148    0.0000 O   0  0  0  0  0  0  0  0  0  0  0  0
    3.5619    0.1727    0.0000 C   0  0  1  0  0  0  0  0  0  0  0  0
    7.1641    3.1322    0.0000 C   0  0  0  0  0  0  0  0  0  0  0  0
    3.6516    1.5421    0.0000 O   0  0  0  0  0  0  0  0  0  0  0  0
    4.3809    0.2724    0.0000 C   0  0  2  0  0  0  0  0  0  0  0  0
    3.6616   -0.6463    0.0000 C   0  0  0  0  0  0  0  0  0  0  0  0
    0.0000   -0.4125    0.0000 C   0  0  0  0  0  0  0  0  0  0  0  0
    3.8850    0.9318    0.0000 O   0  0  0  0  0  0  0  0  0  0  0  0
  1  2  2  0  0  0  0 
  2  3  1  0  0  0  0 
  2  4  1  0  0  0  0 
  5  3  1  6  0  0  0 
  4  6  2  0  0  0  0 
  7  5  1  0  0  0  0 
  5  8  1  0  0  0  0 
  6  9  1  0  0  0  0 
 10  7  1  0  0  0  0 
 11  7  1  0  0  0  0 
  7 12  1  6  0  0  0 
 13  8  1  0  0  0  0 
  9 14  1  0  0  0  0 
 15 10  1  0  0  0  0 
 10 16  1  1  0  0  0 
 10 17  1  0  0  0  0 
 11 18  1  6  0  0  0 
 11 19  1  0  0  0  0 
 13 20  1  1  0  0  0 
 21 14  1  0  0  0  0 
 15 22  1  0  0  0  0 
 16 23  1  0  0  0  0 
 17 24  1  0  0  0  0 
 21 25  1  0  0  0  0 
 21 26  1  6  0  0  0 
 27 21  1  0  0  0  0 
 22 28  2  0  0  0  0 
 23 29  1  0  0  0  0 
 25 30  1  0  0  0  0 
 26 31  1  0  0  0  0 
 27 32  1  6  0  0  0 
 33 27  1  0  0  0  0 
 28 34  1  0  0  0  0 
 29 35  2  0  0  0  0 
 36 29  1  0  0  0  0 
 30 37  1  0  0  0  0 
 31 38  1  0  0  0  0 
 33 39  1  6  0  0  0 
 11 13  1  0  0  0  0 
 15 20  1  6  0  0  0 
 18 19  1  0  0  0  0 
 24 28  1  0  0  0  0 
 33 36  1  0  0  0  0 
 33 37  1  0  0  0  0 
 36 39  1  1  0  0  0 
M  END
> <ID>
CHEBI:207060

> <NAME>
Roridoxin A

$$$$

CDK     1030232200

 43 49  0  0  0  0  0  0  0  0999 V2000
    1.5991    3.8199    0.0000 O   0  0  0  0  0  0  0  0  0  0  0  0
    1.5611    2.9957    0.0000 C   0  0  0  0  0  0  0  0  0  0  0  0
    2.2560    2.5508    0.0000 O   0  0  0  0  0  0  0  0  0  0  0  0
    0.8285    2.6165    0.0000 C   0  0  0  0  0  0  0  0  0  0  0  0
    2.7811    2.8181    0.0000 C   0  0  1  0  0  0  0  0  0  0  0  0
    0.7906    1.7924    0.0000 C   0  0  0  0  0  0  0  0  0  0  0  0
    3.5936    2.6754    0.0000 C   0  0  2  0  0  0  0  0  0  0  0  0
    2.6657    3.6350    0.0000 C   0  0  0  0  0  0  0  0  0  0  0  0
    1.4853    1.3475    0.0000 C   0  0  0  0  0  0  0  0  0  0  0  0
    4.7134    2.7611    0.0000 C   0  0  1  0  0  0  0  0  0  0  0  0
    3.9804    3.4041    0.0000 C   0  0  2  0  0  0  0  0  0  0  0  0
    3.5499    1.8947    0.0000 C   0  0  0  0  0  0  0  0  0  0  0  0
    3.4069    3.9972    0.0000 C   0  0  2  0  0  0  0  0  0  0  0  0
    1.4474    0.5233    0.0000 C   0  0  0  0  0  0  0  0  0  0  0  0
    5.0366    3.5542    0.0000 C   0  0  2  0  0  0  0  0  0  0  0  0
    5.1650    2.4948    0.0000 C   0  0  0  0  0  0  0  0  0  0  0  0
    5.3031    2.1160    0.0000 C   0  0  0  0  0  0  0  0  0  0  0  0
    4.7117    3.1487    0.0000 O   0  0  0  0  0  0  0  0  0  0  0  0
    4.5754    3.8387    0.0000 C   0  0  0  0  0  0  0  0  0  0  0  0
    4.5097    4.2232    0.0000 O   0  0  0  0  0  0  0  0  0  0  0  0
    2.1434    0.0000    0.0000 C   0  0  1  0  0  0  0  0  0  0  0  0
    5.8387    3.6666    0.0000 C   0  0  0  0  0  0  0  0  0  0  0  0
    5.0729    1.5954    0.0000 O   0  0  0  0  0  0  0  0  0  0  0  0
    6.0386    2.2517    0.0000 C   0  0  1  0  0  0  0  0  0  0  0  0
    2.2431   -0.8190    0.0000 O   0  0  0  0  0  0  0  0  0  0  0  0
    1.4290   -0.4125    0.0000 O   0  0  0  0  0  0  0  0  0  0  0  0
    2.8028    0.4958    0.0000 C   0  0  2  0  0  0  0  0  0  0  0  0
    6.3471    3.0169    0.0000 C   0  0  0  0  0  0  0  0  0  0  0  0
    4.3402    1.2161    0.0000 C   0  0  0  0  0  0  0  0  0  0  0  0
    6.5470    1.6020    0.0000 O   0  0  0  0  0  0  0  0  0  0  0  0
    3.0022   -1.1421    0.0000 C   0  0  0  0  0  0  0  0  0  0  0  0
    0.7145    0.0000    0.0000 C   0  0  0  0  0  0  0  0  0  0  0  0
    2.7031    1.3147    0.0000 O   0  0  0  0  0  0  0  0  0  0  0  0
    3.5619    0.1727    0.0000 C   0  0  1  0  0  0  0  0  0  0  0  0
    7.1640    3.1322    0.0000 C   0  0  0  0  0  0  0  0  0  0  0  0
    3.6516    1.5421    0.0000 O   0  0  0  0  0  0  0  0  0  0  0  0
    4.3808    0.2724    0.0000 C   0  0  2  0  0  0  0  0  0  0  0  0
    6.2384    0.8368    0.0000 C   0  0  0  0  0  0  0  0  0  0  0  0
    3.6616   -0.6463    0.0000 C   0  0  0  0  0  0  0  0  0  0  0  0
    0.0000   -0.4125    0.0000 C   0  0  0  0  0  0  0  0  0  0  0  0
    3.8850    0.9318    0.0000 O   0  0  0  0  0  0  0  0  0  0  0  0
    5.4215    0.7214    0.0000 O   0  0  0  0  0  0  0  0  0  0  0  0
    6.7468    0.1871    0.0000 C   0  0  0  0  0  0  0  0  0  0  0  0
  1  2  2  0  0  0  0 
  2  3  1  0  0  0  0 
  2  4  1  0  0  0  0 
  5  3  1  6  0  0  0 
  4  6  2  0  0  0  0 
  7  5  1  0  0  0  0 
  5  8  1  0  0  0  0 
  6  9  1  0  0  0  0 
 10  7  1  0  0  0  0 
 11  7  1  0  0  0  0 
  7 12  1  6  0  0  0 
 13  8  1  0  0  0  0 
  9 14  1  0  0  0  0 
 15 10  1  0  0  0  0 
 10 16  1  1  0  0  0 
 10 17  1  0  0  0  0 
 11 18  1  6  0  0  0 
 11 19  1  0  0  0  0 
 13 20  1  1  0  0  0 
 21 14  1  0  0  0  0 
 15 22  1  0  0  0  0 
 16 23  1  0  0  0  0 
 24 17  1  0  0  0  0 
 21 25  1  0  0  0  0 
 21 26  1  6  0  0  0 
 27 21  1  0  0  0  0 
 22 28  2  0  0  0  0 
 23 29  1  0  0  0  0 
 24 30  1  1  0  0  0 
 25 31  1  0  0  0  0 
 26 32  1  0  0  0  0 
 27 33  1  6  0  0  0 
 34 27  1  0  0  0  0 
 28 35  1  0  0  0  0 
 29 36  2  0  0  0  0 
 37 29  1  0  0  0  0 
 30 38  1  0  0  0  0 
 31 39  1  0  0  0  0 
 32 40  1  0  0  0  0 
 34 41  1  6  0  0  0 
 38 42  2  0  0  0  0 
 38 43  1  0  0  0  0 
 11 13  1  0  0  0  0 
 15 20  1  6  0  0  0 
 18 19  1  0  0  0  0 
 24 28  1  0  0  0  0 
 34 37  1  0  0  0  0 
 34 39  1  0  0  0  0 
 37 41  1  1  0  0  0 
M  END
> <ID>
CHEBI:207067

> <NAME>
Roridoxin B

$$$$

CDK     1030232200

 42 48  0  0  0  0  0  0  0  0999 V2000
    4.3170    4.1765    0.0000 O   0  0  0  0  0  0  0  0  0  0  0  0
    3.5063    4.3293    0.0000 C   0  0  0  0  0  0  0  0  0  0  0  0
    2.9686    3.7036    0.0000 O   0  0  0  0  0  0  0  0  0  0  0  0
    3.2333    5.1078    0.0000 C   0  0  0  0  0  0  0  0  0  0  0  0
    3.1598    3.1463    0.0000 C   0  0  1  0  0  0  0  0  0  0  0  0
    2.4226    5.2606    0.0000 C   0  0  0  0  0  0  0  0  0  0  0  0
    2.9049    2.3616    0.0000 C   0  0  2  0  0  0  0  0  0  0  0  0
    3.9848    3.1463    0.0000 C   0  0  0  0  0  0  0  0  0  0  0  0
    1.8849    4.6349    0.0000 C   0  0  0  0  0  0  0  0  0  0  0  0
    2.8331    1.2409    0.0000 C   0  0  1  0  0  0  0  0  0  0  0  0
    3.5724    1.8767    0.0000 C   0  0  2  0  0  0  0  0  0  0  0  0
    2.1380    2.5140    0.0000 C   0  0  0  0  0  0  0  0  0  0  0  0
    4.2398    2.3616    0.0000 C   0  0  2  0  0  0  0  0  0  0  0  0
    1.0742    4.7877    0.0000 C   0  0  0  0  0  0  0  0  0  0  0  0
    3.5732    0.8099    0.0000 C   0  0  2  0  0  0  0  0  0  0  0  0
    2.5063    0.8310    0.0000 C   0  0  0  0  0  0  0  0  0  0  0  0
    2.1118    0.7473    0.0000 C   0  0  0  0  0  0  0  0  0  0  0  0
    3.2171    1.1884    0.0000 O   0  0  0  0  0  0  0  0  0  0  0  0
    3.9194    1.2269    0.0000 C   0  0  0  0  0  0  0  0  0  0  0  0
    4.3093    1.2381    0.0000 O   0  0  0  0  0  0  0  0  0  0  0  0
    0.4586    4.1718    0.0000 C   0  0  1  0  0  0  0  0  0  0  0  0
    3.5724    0.0000    0.0000 C   0  0  0  0  0  0  0  0  0  0  0  0
    1.6286    1.0480    0.0000 O   0  0  0  0  0  0  0  0  0  0  0  0
    2.1434    0.0000    0.0000 C   0  0  1  0  0  0  0  0  0  0  0  0
   -0.3662    4.1876    0.0000 O   0  0  0  0  0  0  0  0  0  0  0  0
    0.1501    4.9369    0.0000 O   0  0  0  0  0  0  0  0  0  0  0  0
    0.8574    3.4495    0.0000 C   0  0  2  0  0  0  0  0  0  0  0  0
    2.8579   -0.4125    0.0000 C   0  0  0  0  0  0  0  0  0  0  0  0
    1.3555    1.8265    0.0000 C   0  0  0  0  0  0  0  0  0  0  0  0
    1.4289   -0.4125    0.0000 O   0  0  0  0  0  0  0  0  0  0  0  0
   -0.7924    3.4812    0.0000 C   0  0  0  0  0  0  0  0  0  0  0  0
   -0.6668    5.0523    0.0000 C   0  0  0  0  0  0  0  0  0  0  0  0
    1.6822    3.4337    0.0000 O   0  0  0  0  0  0  0  0  0  0  0  0
    0.4312    2.7431    0.0000 C   0  0  1  0  0  0  0  0  0  0  0  0
    2.8579   -1.2375    0.0000 C   0  0  0  0  0  0  0  0  0  0  0  0
    1.7747    2.4628    0.0000 O   0  0  0  0  0  0  0  0  0  0  0  0
    0.4154    1.9182    0.0000 C   0  0  2  0  0  0  0  0  0  0  0  0
    0.7145    0.0000    0.0000 C   0  0  0  0  0  0  0  0  0  0  0  0
   -0.3936    2.7589    0.0000 C   0  0  0  0  0  0  0  0  0  0  0  0
    1.1376    2.3170    0.0000 O   0  0  0  0  0  0  0  0  0  0  0  0
    0.7145    0.8250    0.0000 O   0  0  0  0  0  0  0  0  0  0  0  0
    0.0000   -0.4125    0.0000 C   0  0  0  0  0  0  0  0  0  0  0  0
  1  2  2  0  0  0  0 
  2  3  1  0  0  0  0 
  2  4  1  0  0  0  0 
  5  3  1  6  0  0  0 
  4  6  2  0  0  0  0 
  7  5  1  0  0  0  0 
  5  8  1  0  0  0  0 
  6  9  1  0  0  0  0 
 10  7  1  0  0  0  0 
 11  7  1  0  0  0  0 
  7 12  1  6  0  0  0 
 13  8  1  0  0  0  0 
  9 14  1  0  0  0  0 
 15 10  1  0  0  0  0 
 10 16  1  1  0  0  0 
 10 17  1  0  0  0  0 
 11 18  1  6  0  0  0 
 11 19  1  0  0  0  0 
 13 20  1  1  0  0  0 
 21 14  1  0  0  0  0 
 15 22  1  0  0  0  0 
 16 23  1  0  0  0  0 
 24 17  1  0  0  0  0 
 21 25  1  0  0  0  0 
 21 26  1  6  0  0  0 
 27 21  1  0  0  0  0 
 22 28  2  0  0  0  0 
 23 29  1  0  0  0  0 
 24 30  1  1  0  0  0 
 25 31  1  0  0  0  0 
 26 32  1  0  0  0  0 
 27 33  1  6  0  0  0 
 34 27  1  0  0  0  0 
 28 35  1  0  0  0  0 
 29 36  2  0  0  0  0 
 37 29  1  0  0  0  0 
 30 38  1  0  0  0  0 
 31 39  1  0  0  0  0 
 34 40  1  6  0  0  0 
 38 41  2  0  0  0  0 
 38 42  1  0  0  0  0 
 11 13  1  0  0  0  0 
 15 20  1  6  0  0  0 
 18 19  1  0  0  0  0 
 24 28  1  0  0  0  0 
 34 37  1  0  0  0  0 
 34 39  1  0  0  0  0 
 37 40  1  1  0  0  0 
M  END
> <ID>
CHEBI:207072

> <NAME>
Roridoxin C

$$$$

CDK     1030232200

 37 41  0  0  0  0  0  0  0  0999 V2000
   -1.4289   -3.7125    0.0000 O   0  0  0  0  0  0  0  0  0  0  0  0
   -0.7145   -4.1250    0.0000 C   0  0  0  0  0  0  0  0  0  0  0  0
   -0.7145   -4.9500    0.0000 O   0  0  0  0  0  0  0  0  0  0  0  0
   -0.0512   -3.7091    0.0000 C   0  0  0  0  0  0  0  0  0  0  0  0
    0.0323   -5.4475    0.0000 C   0  0  0  0  0  0  0  0  0  0  0  0
    0.0000   -2.8875    0.0000 C   0  0  0  0  0  0  0  0  0  0  0  0
    0.4861   -5.1667    0.0000 C   0  0  1  0  0  0  0  0  0  0  0  0
    0.7145   -2.4750    0.0000 C   0  0  0  0  0  0  0  0  0  0  0  0
   -0.7145   -2.4750    0.0000 C   0  0  0  0  0  0  0  0  0  0  0  0
    0.9247   -4.1328    0.0000 C   0  0  2  0  0  0  0  0  0  0  0  0
    1.0417   -5.8182    0.0000 C   0  0  2  0  0  0  0  0  0  0  0  0
   -0.3655   -5.3905    0.0000 C   0  0  0  0  0  0  0  0  0  0  0  0
    0.7145   -1.6500    0.0000 C   0  0  0  0  0  0  0  0  0  0  0  0
    1.3940   -4.8113    0.0000 C   0  0  2  0  0  0  0  0  0  0  0  0
    1.4249   -3.4768    0.0000 C   0  0  2  0  0  0  0  0  0  0  0  0
    0.3092   -3.7330    0.0000 C   0  0  0  0  0  0  0  0  0  0  0  0
    1.8782   -5.6578    0.0000 O   0  0  0  0  0  0  0  0  0  0  0  0
    0.7730   -6.5822    0.0000 C   0  0  0  0  0  0  0  0  0  0  0  0
   -0.5755   -6.1093    0.0000 C   0  0  0  0  0  0  0  0  0  0  0  0
    1.4289   -1.2375    0.0000 O   0  0  0  0  0  0  0  0  0  0  0  0
    0.8311   -5.3432    0.0000 O   0  0  0  0  0  0  0  0  0  0  0  0
    2.1843   -4.5746    0.0000 C   0  0  2  0  0  0  0  0  0  0  0  0
    1.5065   -5.5394    0.0000 C   0  0  0  0  0  0  0  0  0  0  0  0
    1.4289   -2.8875    0.0000 O   0  0  0  0  0  0  0  0  0  0  0  0
    2.2035   -3.7498    0.0000 C   0  0  0  0  0  0  0  0  0  0  0  0
   -0.0378   -6.7351    0.0000 C   0  0  0  0  0  0  0  0  0  0  0  0
    1.4289   -0.4125    0.0000 C   0  0  0  0  0  0  0  0  0  0  0  0
    2.1434   -2.4750    0.0000 C   0  0  0  0  0  0  0  0  0  0  0  0
   -0.3108   -7.5136    0.0000 C   0  0  0  0  0  0  0  0  0  0  0  0
    0.7145    0.0000    0.0000 C   0  0  0  0  0  0  0  0  0  0  0  0
    2.1434    0.0000    0.0000 C   0  0  0  0  0  0  0  0  0  0  0  0
    2.8579   -2.8875    0.0000 O   0  0  0  0  0  0  0  0  0  0  0  0
    2.1434   -1.6500    0.0000 C   0  0  0  0  0  0  0  0  0  0  0  0
    0.7145    0.8250    0.0000 O   0  0  0  0  0  0  0  0  0  0  0  0
    0.0000   -0.4125    0.0000 C   0  0  0  0  0  0  0  0  0  0  0  0
    2.8579   -0.4125    0.0000 C   0  0  0  0  0  0  0  0  0  0  0  0
    2.8579   -1.2375    0.0000 C   0  0  0  0  0  0  0  0  0  0  0  0
  1  2  2  0  0  0  0 
  2  3  1  0  0  0  0 
  2  4  1  0  0  0  0 
  3  5  1  0  0  0  0 
  4  6  2  0  0  0  0 
  7  5  1  1  0  0  0 
  6  8  1  0  0  0  0 
  6  9  1  0  0  0  0 
 10  7  1  0  0  0  0 
 11  7  1  0  0  0  0 
  7 12  1  0  0  0  0 
  8 13  1  0  0  0  0 
 14 10  1  0  0  0  0 
 15 10  1  0  0  0  0 
 10 16  1  6  0  0  0 
 11 17  1  6  0  0  0 
 11 18  1  0  0  0  0 
 12 19  1  0  0  0  0 
 13 20  1  0  0  0  0 
 14 21  1  1  0  0  0 
 22 14  1  0  0  0  0 
 14 23  1  0  0  0  0 
 15 24  1  6  0  0  0 
 15 25  1  0  0  0  0 
 18 26  2  0  0  0  0 
 20 27  1  0  0  0  0 
 24 28  1  0  0  0  0 
 26 29  1  0  0  0  0 
 27 30  1  0  0  0  0 
 27 31  2  0  0  0  0 
 28 32  2  0  0  0  0 
 28 33  1  0  0  0  0 
 30 34  2  0  0  0  0 
 30 35  1  0  0  0  0 
 31 36  1  0  0  0  0 
 33 37  1  0  0  0  0 
 22 17  1  1  0  0  0 
 19 26  1  0  0  0  0 
 21 23  1  0  0  0  0 
 22 25  1  0  0  0  0 
 36 37  2  0  0  0  0 
M  END
> <ID>
CHEBI:207110

> <NAME>
Chartarene D

$$$$

CDK     1030232200

 41 45  0  0  0  0  0  0  0  0999 V2000
    1.2405   -0.2494    0.0000 O   0  0  0  0  0  0  0  0  0  0  0  0
    1.0909    0.4223    0.0000 C   0  0  0  0  0  0  0  0  0  0  0  0
    1.6286    1.0480    0.0000 O   0  0  0  0  0  0  0  0  0  0  0  0
    0.2801    0.5751    0.0000 C   0  0  0  0  0  0  0  0  0  0  0  0
    2.5063    0.8310    0.0000 C   0  0  0  0  0  0  0  0  0  0  0  0
    0.0071    1.3536    0.0000 C   0  0  0  0  0  0  0  0  0  0  0  0
    2.8332    1.2408    0.0000 C   0  0  1  0  0  0  0  0  0  0  0  0
    0.5448    1.9793    0.0000 C   0  0  0  0  0  0  0  0  0  0  0  0
   -0.8036    1.5064    0.0000 C   0  0  0  0  0  0  0  0  0  0  0  0
    2.9049    2.3616    0.0000 C   0  0  2  0  0  0  0  0  0  0  0  0
    3.5732    0.8099    0.0000 C   0  0  2  0  0  0  0  0  0  0  0  0
    2.1118    0.7472    0.0000 C   0  0  0  0  0  0  0  0  0  0  0  0
    0.2718    2.7578    0.0000 C   0  0  0  0  0  0  0  0  0  0  0  0
    3.5723    1.8767    0.0000 C   0  0  0  0  0  0  0  0  0  0  0  0
    3.1599    3.1462    0.0000 C   0  0  2  0  0  0  0  0  0  0  0  0
    2.0929    2.5077    0.0000 C   0  0  0  0  0  0  0  0  0  0  0  0
    4.3093    1.2381    0.0000 O   0  0  0  0  0  0  0  0  0  0  0  0
    3.5723    0.0000    0.0000 C   0  0  0  0  0  0  0  0  0  0  0  0
    2.1434    0.0000    0.0000 C   0  0  1  0  0  0  0  0  0  0  0  0
    0.8095    3.3835    0.0000 O   0  0  0  0  0  0  0  0  0  0  0  0
    3.2171    1.1884    0.0000 O   0  0  0  0  0  0  0  0  0  0  0  0
    4.2398    2.3616    0.0000 C   0  0  2  0  0  0  0  0  0  0  0  0
    3.9194    1.2268    0.0000 C   0  0  0  0  0  0  0  0  0  0  0  0
    2.9686    3.7036    0.0000 O   0  0  0  0  0  0  0  0  0  0  0  0
    3.9848    3.1462    0.0000 C   0  0  0  0  0  0  0  0  0  0  0  0
    2.8579   -0.4125    0.0000 C   0  0  0  0  0  0  0  0  0  0  0  0
    1.4907   -0.4659    0.0000 O   0  0  0  0  0  0  0  0  0  0  0  0
    0.5365    4.1620    0.0000 C   0  0  2  0  0  0  0  0  0  0  0  0
    3.5063    4.3293    0.0000 C   0  0  0  0  0  0  0  0  0  0  0  0
    2.8579   -1.2375    0.0000 C   0  0  0  0  0  0  0  0  0  0  0  0
    1.4289   -1.2375    0.0000 C   0  0  0  0  0  0  0  0  0  0  0  0
    1.0742    4.7877    0.0000 C   0  0  0  0  0  0  0  0  0  0  0  0
   -0.2742    4.3148    0.0000 C   0  0  2  0  0  0  0  0  0  0  0  0
    4.3171    4.1765    0.0000 O   0  0  0  0  0  0  0  0  0  0  0  0
    3.2333    5.1078    0.0000 C   0  0  0  0  0  0  0  0  0  0  0  0
    2.1434   -1.6500    0.0000 O   0  0  0  0  0  0  0  0  0  0  0  0
    0.7145   -1.6500    0.0000 C   0  0  0  0  0  0  0  0  0  0  0  0
    1.8849    4.6349    0.0000 C   0  0  0  0  0  0  0  0  0  0  0  0
   -0.5473    5.0933    0.0000 O   0  0  0  0  0  0  0  0  0  0  0  0
   -0.8119    3.6891    0.0000 C   0  0  0  0  0  0  0  0  0  0  0  0
    2.4226    5.2606    0.0000 C   0  0  0  0  0  0  0  0  0  0  0  0
  1  2  2  0  0  0  0 
  2  3  1  0  0  0  0 
  2  4  1  0  0  0  0 
  3  5  1  0  0  0  0 
  4  6  2  0  0  0  0 
  7  5  1  1  0  0  0 
  6  8  1  0  0  0  0 
  6  9  1  0  0  0  0 
 10  7  1  0  0  0  0 
 11  7  1  0  0  0  0 
  7 12  1  0  0  0  0 
  8 13  1  0  0  0  0 
 10 14  1  0  0  0  0 
 15 10  1  0  0  0  0 
 10 16  1  6  0  0  0 
 11 17  1  6  0  0  0 
 11 18  1  0  0  0  0 
 19 12  1  0  0  0  0 
 13 20  1  0  0  0  0 
 14 21  1  0  0  0  0 
 22 14  1  0  0  0  0 
 14 23  1  0  0  0  0 
 15 24  1  6  0  0  0 
 15 25  1  0  0  0  0 
 18 26  2  0  0  0  0 
 19 27  1  1  0  0  0 
 28 20  1  1  0  0  0 
 24 29  1  0  0  0  0 
 26 30  1  0  0  0  0 
 27 31  1  0  0  0  0 
 28 32  1  0  0  0  0 
 33 28  1  0  0  0  0 
 29 34  2  0  0  0  0 
 29 35  1  0  0  0  0 
 31 36  2  0  0  0  0 
 31 37  1  0  0  0  0 
 32 38  2  3  0  0  0 
 33 39  1  1  0  0  0 
 33 40  1  0  0  0  0 
 35 41  2  0  0  0  0 
 22 17  1  1  0  0  0 
 19 26  1  0  0  0  0 
 21 23  1  0  0  0  0 
 22 25  1  0  0  0  0 
 38 41  1  0  0  0  0 
M  END
> <ID>
CHEBI:207386

> <NAME>
8-Acetoxyroridin E

$$$$

CDK     1030232200

 36 43  0  0  0  0  0  0  0  0999 V2000
    0.6217    2.2977    0.0000 O   0  0  0  0  0  0  0  0  0  0  0  0
   -0.0962    1.8911    0.0000 C   0  0  0  0  0  0  0  0  0  0  0  0
   -0.1030    1.0662    0.0000 O   0  0  0  0  0  0  0  0  0  0  0  0
   -0.8072    2.3096    0.0000 C   0  0  0  0  0  0  0  0  0  0  0  0
    0.4028    0.7638    0.0000 C   0  0  1  0  0  0  0  0  0  0  0  0
   -1.5251    1.9030    0.0000 C   0  0  0  0  0  0  0  0  0  0  0  0
    0.7145    0.0000    0.0000 C   0  0  2  0  0  0  0  0  0  0  0  0
    1.0329    1.2963    0.0000 C   0  0  0  0  0  0  0  0  0  0  0  0
   -1.5319    1.0781    0.0000 C   0  0  0  0  0  0  0  0  0  0  0  0
    1.3831   -0.9024    0.0000 C   0  0  1  0  0  0  0  0  0  0  0  0
    1.5373    0.0604    0.0000 C   0  0  2  0  0  0  0  0  0  0  0  0
    0.0076   -0.3546    0.0000 C   0  0  0  0  0  0  0  0  0  0  0  0
    1.7341    0.8616    0.0000 C   0  0  2  0  0  0  0  0  0  0  0  0
   -2.2498    0.6715    0.0000 C   0  0  0  0  0  0  0  0  0  0  0  0
    2.2264   -0.7539    0.0000 C   0  0  2  0  0  0  0  0  0  0  0  0
    1.3949   -1.4359    0.0000 C   0  0  0  0  0  0  0  0  0  0  0  0
    1.1441   -1.7498    0.0000 C   0  0  0  0  0  0  0  0  0  0  0  0
    1.7102   -0.6946    0.0000 O   0  0  0  0  0  0  0  0  0  0  0  0
    2.2218   -0.2119    0.0000 C   0  0  0  0  0  0  0  0  0  0  0  0
    2.5123    0.0483    0.0000 O   0  0  0  0  0  0  0  0  0  0  0  0
   -2.1635   -0.1511    0.0000 C   0  0  2  0  0  0  0  0  0  0  0  0
    2.7486   -1.3731    0.0000 C   0  0  0  0  0  0  0  0  0  0  0  0
    0.5874   -1.8272    0.0000 O   0  0  0  0  0  0  0  0  0  0  0  0
    1.6571   -2.2954    0.0000 C   0  0  0  0  0  0  0  0  0  0  0  0
   -2.9357   -0.4416    0.0000 O   0  0  0  0  0  0  0  0  0  0  0  0
   -1.3913    0.1393    0.0000 O   0  0  0  0  0  0  0  0  0  0  0  0
   -1.5258   -0.6747    0.0000 C   0  0  1  0  0  0  0  0  0  0  0  0
    2.4691   -2.1493    0.0000 C   0  0  0  0  0  0  0  0  0  0  0  0
   -0.1236   -1.4087    0.0000 C   0  0  0  0  0  0  0  0  0  0  0  0
   -3.0702   -1.2556    0.0000 C   0  0  0  0  0  0  0  0  0  0  0  0
   -1.6604   -1.4886    0.0000 C   0  0  1  0  0  0  0  0  0  0  0  0
    3.0016   -2.7795    0.0000 C   0  0  0  0  0  0  0  0  0  0  0  0
   -0.0386   -0.7057    0.0000 O   0  0  0  0  0  0  0  0  0  0  0  0
   -0.8464   -1.6232    0.0000 C   0  0  0  0  0  0  0  0  0  0  0  0
   -2.4326   -1.7790    0.0000 C   0  0  0  0  0  0  0  0  0  0  0  0
   -1.3700   -2.2608    0.0000 O   0  0  0  0  0  0  0  0  0  0  0  0
  1  2  2  0  0  0  0 
  2  3  1  0  0  0  0 
  2  4  1  0  0  0  0 
  5  3  1  6  0  0  0 
  4  6  2  0  0  0  0 
  7  5  1  0  0  0  0 
  5  8  1  0  0  0  0 
  6  9  1  0  0  0  0 
 10  7  1  0  0  0  0 
 11  7  1  0  0  0  0 
  7 12  1  6  0  0  0 
 13  8  1  0  0  0  0 
  9 14  1  0  0  0  0 
 15 10  1  0  0  0  0 
 10 16  1  1  0  0  0 
 10 17  1  0  0  0  0 
 11 18  1  6  0  0  0 
 11 19  1  0  0  0  0 
 13 20  1  1  0  0  0 
 21 14  1  0  0  0  0 
 15 22  1  0  0  0  0 
 16 23  1  0  0  0  0 
 17 24  1  0  0  0  0 
 21 25  1  0  0  0  0 
 21 26  1  1  0  0  0 
 27 21  1  0  0  0  0 
 22 28  2  0  0  0  0 
 23 29  1  0  0  0  0 
 25 30  1  0  0  0  0 
 31 27  1  0  0  0  0 
 28 32  1  0  0  0  0 
 29 33  2  0  0  0  0 
 29 34  1  0  0  0  0 
 30 35  1  0  0  0  0 
 31 36  1  6  0  0  0 
 11 13  1  0  0  0  0 
 15 20  1  6  0  0  0 
 18 19  1  0  0  0  0 
 24 28  1  0  0  0  0 
 27 26  1  1  0  0  0 
 31 34  1  0  0  0  0 
 31 35  1  0  0  0  0 
 34 36  1  0  0  0  0 
M  END
> <ID>
CHEBI:207660

> <NAME>
6,12-epoxymyrotoxin A

$$$$

CDK     1030232200

 39 44  0  0  0  0  0  0  0  0999 V2000
    3.5153   -0.9103    0.0000 O   0  0  0  0  0  0  0  0  0  0  0  0
    3.5723   -1.6500    0.0000 C   0  0  0  0  0  0  0  0  0  0  0  0
    4.2868   -2.0625    0.0000 O   0  0  0  0  0  0  0  0  0  0  0  0
    2.8579   -2.0625    0.0000 C   0  0  0  0  0  0  0  0  0  0  0  0
    5.0940   -1.6550    0.0000 C   0  0  0  0  0  0  0  0  0  0  0  0
    2.1434   -1.6500    0.0000 C   0  0  0  0  0  0  0  0  0  0  0  0
    5.0747   -1.1311    0.0000 C   0  0  1  0  0  0  0  0  0  0  0  0
    2.1434   -0.8250    0.0000 C   0  0  1  0  0  0  0  0  0  0  0  0
    1.4289   -2.0625    0.0000 C   0  0  0  0  0  0  0  0  0  0  0  0
    4.3987   -0.2344    0.0000 C   0  0  2  0  0  0  0  0  0  0  0  0
    5.9169   -0.9757    0.0000 C   0  0  2  0  0  0  0  0  0  0  0  0
    4.8494   -1.9756    0.0000 C   0  0  0  0  0  0  0  0  0  0  0  0
    2.8579   -0.4125    0.0000 O   0  0  0  0  0  0  0  0  0  0  0  0
    1.4289   -0.4125    0.0000 C   0  0  2  0  0  0  0  0  0  0  0  0
    0.7145   -1.6500    0.0000 C   0  0  0  0  0  0  0  0  0  0  0  0
    5.2209   -0.1671    0.0000 C   0  0  1  0  0  0  0  0  0  0  0  0
    4.0807    0.5269    0.0000 C   0  0  2  0  0  0  0  0  0  0  0  0
    3.7162   -0.6101    0.0000 C   0  0  0  0  0  0  0  0  0  0  0  0
    6.1961   -0.1711    0.0000 O   0  0  0  0  0  0  0  0  0  0  0  0
    6.4441   -1.5905    0.0000 C   0  0  0  0  0  0  0  0  0  0  0  0
    5.3604   -2.5218    0.0000 C   0  0  0  0  0  0  0  0  0  0  0  0
    0.7145   -0.8250    0.0000 O   0  0  0  0  0  0  0  0  0  0  0  0
    0.7145    0.0000    0.0000 C   0  0  0  0  0  0  0  0  0  0  0  0
    1.4289    0.4125    0.0000 C   0  0  1  0  0  0  0  0  0  0  0  0
    5.4001   -0.9207    0.0000 O   0  0  0  0  0  0  0  0  0  0  0  0
    5.4111    0.6357    0.0000 C   0  0  2  0  0  0  0  0  0  0  0  0
    5.9077   -0.4338    0.0000 C   0  0  0  0  0  0  0  0  0  0  0  0
    3.5723    0.8250    0.0000 O   0  0  0  0  0  0  0  0  0  0  0  0
    4.7064    1.0646    0.0000 C   0  0  0  0  0  0  0  0  0  0  0  0
    6.1711   -2.3690    0.0000 C   0  0  0  0  0  0  0  0  0  0  0  0
    0.6051    0.6501    0.0000 O   0  0  0  0  0  0  0  0  0  0  0  0
    0.0000   -0.4125    0.0000 C   0  0  0  0  0  0  0  0  0  0  0  0
    0.7691    0.9125    0.0000 O   0  0  0  0  0  0  0  0  0  0  0  0
    2.1434    0.8250    0.0000 C   0  0  0  0  0  0  0  0  0  0  0  0
    3.5723    1.6500    0.0000 C   0  0  0  0  0  0  0  0  0  0  0  0
    6.7088   -2.9947    0.0000 C   0  0  0  0  0  0  0  0  0  0  0  0
    2.1434    1.6500    0.0000 C   0  0  0  0  0  0  0  0  0  0  0  0
    4.2868    2.0625    0.0000 O   0  0  0  0  0  0  0  0  0  0  0  0
    2.8579    2.0625    0.0000 C   0  0  0  0  0  0  0  0  0  0  0  0
  1  2  2  0  0  0  0 
  2  3  1  0  0  0  0 
  2  4  1  0  0  0  0 
  3  5  1  0  0  0  0 
  4  6  2  3  0  0  0 
  7  5  1  1  0  0  0 
  8  6  1  0  0  0  0 
  6  9  1  0  0  0  0 
 10  7  1  0  0  0  0 
 11  7  1  0  0  0  0 
  7 12  1  0  0  0  0 
  8 13  1  6  0  0  0 
 14  8  1  0  0  0  0 
  9 15  1  0  0  0  0 
 16 10  1  0  0  0  0 
 17 10  1  0  0  0  0 
 10 18  1  6  0  0  0 
 11 19  1  6  0  0  0 
 11 20  1  0  0  0  0 
 12 21  1  0  0  0  0 
 14 22  1  0  0  0  0 
 14 23  1  6  0  0  0 
 24 14  1  0  0  0  0 
 16 25  1  6  0  0  0 
 26 16  1  0  0  0  0 
 16 27  1  0  0  0  0 
 17 28  1  6  0  0  0 
 17 29  1  0  0  0  0 
 20 30  2  0  0  0  0 
 23 31  2  0  0  0  0 
 23 32  1  0  0  0  0 
 24 33  1  1  0  0  0 
 24 34  1  0  0  0  0 
 28 35  1  0  0  0  0 
 30 36  1  0  0  0  0 
 34 37  1  0  0  0  0 
 35 38  2  0  0  0  0 
 35 39  1  0  0  0  0 
 15 22  1  0  0  0  0 
 26 19  1  1  0  0  0 
 21 30  1  0  0  0  0 
 25 27  1  0  0  0  0 
 26 29  1  0  0  0  0 
 37 39  2  0  0  0  0 
M  END
> <ID>
CHEBI:207663

> <NAME>
7'-hydroxymytoxin B

$$$$

CDK     1030232200

 38 43  0  0  0  0  0  0  0  0999 V2000
   -1.5319    1.0780    0.0000 O   0  0  0  0  0  0  0  0  0  0  0  0
   -0.8209    0.6596    0.0000 C   0  0  0  0  0  0  0  0  0  0  0  0
   -0.1030    1.0661    0.0000 O   0  0  0  0  0  0  0  0  0  0  0  0
   -0.8277   -0.1653    0.0000 C   0  0  0  0  0  0  0  0  0  0  0  0
    0.4028    0.7638    0.0000 C   0  0  1  0  0  0  0  0  0  0  0  0
   -1.5456   -0.5719    0.0000 C   0  0  0  0  0  0  0  0  0  0  0  0
    0.7145    0.0000    0.0000 C   0  0  2  0  0  0  0  0  0  0  0  0
    1.0329    1.2963    0.0000 C   0  0  0  0  0  0  0  0  0  0  0  0
   -2.2566   -0.1535    0.0000 C   0  0  0  0  0  0  0  0  0  0  0  0
    1.3830   -0.9023    0.0000 C   0  0  1  0  0  0  0  0  0  0  0  0
    1.5372    0.0604    0.0000 C   0  0  2  0  0  0  0  0  0  0  0  0
    0.0289   -0.3701    0.0000 C   0  0  0  0  0  0  0  0  0  0  0  0
    1.7341    0.8616    0.0000 C   0  0  2  0  0  0  0  0  0  0  0  0
   -2.9745   -0.5600    0.0000 C   0  0  0  0  0  0  0  0  0  0  0  0
    2.2264   -0.7539    0.0000 C   0  0  2  0  0  0  0  0  0  0  0  0
    1.3949   -1.4358    0.0000 C   0  0  0  0  0  0  0  0  0  0  0  0
    1.1441   -1.7498    0.0000 C   0  0  0  0  0  0  0  0  0  0  0  0
    1.7101   -0.6946    0.0000 O   0  0  0  0  0  0  0  0  0  0  0  0
    2.2218   -0.2120    0.0000 C   0  0  0  0  0  0  0  0  0  0  0  0
    2.5123    0.0483    0.0000 O   0  0  0  0  0  0  0  0  0  0  0  0
   -2.9792   -1.4378    0.0000 C   0  0  0  0  0  0  0  0  0  0  0  0
    2.7485   -1.3731    0.0000 C   0  0  0  0  0  0  0  0  0  0  0  0
    0.5874   -1.8272    0.0000 O   0  0  0  0  0  0  0  0  0  0  0  0
    1.6571   -2.2954    0.0000 C   0  0  0  0  0  0  0  0  0  0  0  0
   -2.2283   -1.7796    0.0000 O   0  0  0  0  0  0  0  0  0  0  0  0
   -3.5363   -2.0463    0.0000 C   0  0  0  0  0  0  0  0  0  0  0  0
    2.4690   -2.1493    0.0000 C   0  0  0  0  0  0  0  0  0  0  0  0
   -0.1236   -1.4088    0.0000 C   0  0  0  0  0  0  0  0  0  0  0  0
   -2.3214   -2.5993    0.0000 C   0  0  0  0  0  0  0  0  0  0  0  0
   -3.1297   -2.7642    0.0000 O   0  0  0  0  0  0  0  0  0  0  0  0
   -4.3560   -1.9533    0.0000 C   0  0  0  0  0  0  0  0  0  0  0  0
    3.0015   -2.7795    0.0000 C   0  0  0  0  0  0  0  0  0  0  0  0
   -0.1745   -0.6686    0.0000 O   0  0  0  0  0  0  0  0  0  0  0  0
   -0.8414   -1.8153    0.0000 C   0  0  1  0  0  0  0  0  0  0  0  0
   -1.5662   -3.0468    0.0000 C   0  0  0  0  0  0  0  0  0  0  0  0
   -1.5525   -1.3969    0.0000 O   0  0  0  0  0  0  0  0  0  0  0  0
   -0.8483   -2.6403    0.0000 C   0  0  1  0  0  0  0  0  0  0  0  0
   -0.1373   -3.0587    0.0000 C   0  0  0  0  0  0  0  0  0  0  0  0
  1  2  2  0  0  0  0 
  2  3  1  0  0  0  0 
  2  4  1  0  0  0  0 
  5  3  1  6  0  0  0 
  4  6  2  0  0  0  0 
  7  5  1  0  0  0  0 
  5  8  1  0  0  0  0 
  6  9  1  0  0  0  0 
 10  7  1  0  0  0  0 
 11  7  1  0  0  0  0 
  7 12  1  6  0  0  0 
 13  8  1  0  0  0  0 
  9 14  2  0  0  0  0 
 15 10  1  0  0  0  0 
 10 16  1  1  0  0  0 
 10 17  1  0  0  0  0 
 11 18  1  6  0  0  0 
 11 19  1  0  0  0  0 
 13 20  1  1  0  0  0 
 14 21  1  0  0  0  0 
 15 22  1  0  0  0  0 
 16 23  1  0  0  0  0 
 17 24  1  0  0  0  0 
 21 25  1  0  0  0  0 
 21 26  1  0  0  0  0 
 22 27  2  0  0  0  0 
 23 28  1  0  0  0  0 
 25 29  1  0  0  0  0 
 26 30  1  0  0  0  0 
 26 31  1  0  0  0  0 
 27 32  1  0  0  0  0 
 28 33  2  0  0  0  0 
 34 28  1  0  0  0  0 
 29 35  1  0  0  0  0 
 34 36  1  6  0  0  0 
 37 34  1  0  0  0  0 
 37 38  1  6  0  0  0 
 11 13  1  0  0  0  0 
 15 20  1  6  0  0  0 
 18 19  1  0  0  0  0 
 24 27  1  0  0  0  0 
 29 30  1  0  0  0  0 
 35 37  1  0  0  0  0 
M  END
> <ID>
CHEBI:208893

> <NAME>
Roridin R

$$$$

CDK     1030232200

 30 34  0  0  0  0  0  0  0  0999 V2000
    7.0984    0.1503    0.0000 O   0  0  0  0  0  0  0  0  0  0  0  0
    6.3448   -0.1852    0.0000 C   0  0  0  0  0  0  0  0  0  0  0  0
    5.6773    0.2997    0.0000 C   0  0  0  0  0  0  0  0  0  0  0  0
    6.2585   -1.0057    0.0000 C   0  0  0  0  0  0  0  0  0  0  0  0
    4.9236   -0.0359    0.0000 C   0  0  0  0  0  0  0  0  0  0  0  0
    5.7635    1.1202    0.0000 C   0  0  0  0  0  0  0  0  0  0  0  0
    5.5048   -1.3413    0.0000 C   0  0  0  0  0  0  0  0  0  0  0  0
    6.9260   -1.4906    0.0000 C   0  0  0  0  0  0  0  0  0  0  0  0
    4.8374   -0.8564    0.0000 O   0  0  0  0  0  0  0  0  0  0  0  0
    4.2562    0.4491    0.0000 C   0  0  0  0  0  0  0  0  0  0  0  0
    6.5172    1.4557    0.0000 O   0  0  0  0  0  0  0  0  0  0  0  0
    5.0961    1.6051    0.0000 C   0  0  0  0  0  0  0  0  0  0  0  0
    5.4186   -2.1618    0.0000 C   0  0  0  0  0  0  0  0  0  0  0  0
    7.6796   -1.1551    0.0000 O   0  0  0  0  0  0  0  0  0  0  0  0
    6.8397   -2.3111    0.0000 C   0  0  0  0  0  0  0  0  0  0  0  0
    4.3424    1.2695    0.0000 C   0  0  0  0  0  0  0  0  0  0  0  0
    3.4492    0.2775    0.0000 C   0  0  1  0  0  0  0  0  0  0  0  0
    6.6035    2.2763    0.0000 C   0  0  0  0  0  0  0  0  0  0  0  0
    4.6649   -2.4973    0.0000 O   0  0  0  0  0  0  0  0  0  0  0  0
    6.0860   -2.6467    0.0000 C   0  0  0  0  0  0  0  0  0  0  0  0
    3.5887    1.6051    0.0000 O   0  0  0  0  0  0  0  0  0  0  0  0
    3.0367    0.9920    0.0000 C   0  0  1  0  0  0  0  0  0  0  0  0
    2.8971   -0.3355    0.0000 C   0  0  0  0  0  0  0  0  0  0  0  0
    4.5787   -3.3179    0.0000 C   0  0  0  0  0  0  0  0  0  0  0  0
    2.2297    0.8205    0.0000 O   0  0  0  0  0  0  0  0  0  0  0  0
    2.1435    0.0000    0.0000 C   0  0  2  0  0  0  0  0  0  0  0  0
    1.4290   -0.4125    0.0000 O   0  0  0  0  0  0  0  0  0  0  0  0
    0.7145    0.0000    0.0000 C   0  0  0  0  0  0  0  0  0  0  0  0
    0.7145    0.8250    0.0000 O   0  0  0  0  0  0  0  0  0  0  0  0
    0.0000   -0.4125    0.0000 C   0  0  0  0  0  0  0  0  0  0  0  0
  1  2  2  0  0  0  0 
  2  3  1  0  0  0  0 
  2  4  1  0  0  0  0 
  3  5  2  0  0  0  0 
  3  6  1  0  0  0  0 
  4  7  2  0  0  0  0 
  4  8  1  0  0  0  0 
  5  9  1  0  0  0  0 
  5 10  1  0  0  0  0 
  6 11  1  0  0  0  0 
  6 12  2  0  0  0  0 
  7 13  1  0  0  0  0 
  8 14  1  0  0  0  0 
  8 15  2  0  0  0  0 
 10 16  2  0  0  0  0 
 17 10  1  0  0  0  0 
 11 18  1  0  0  0  0 
 13 19  1  0  0  0  0 
 13 20  2  0  0  0  0 
 16 21  1  0  0  0  0 
 22 17  1  0  0  0  0 
 17 23  1  6  0  0  0 
 19 24  1  0  0  0  0 
 22 25  1  6  0  0  0 
 26 23  1  0  0  0  0 
 26 27  1  1  0  0  0 
 27 28  1  0  0  0  0 
 28 29  2  0  0  0  0 
 28 30  1  0  0  0  0 
  7  9  1  0  0  0  0 
 12 16  1  0  0  0  0 
 15 20  1  0  0  0  0 
 21 22  1  0  0  0  0 
 25 26  1  0  0  0  0 
M  END
> <ID>
CHEBI:209153

> <NAME>
Oxisterigmatocystin D

$$$$

CDK     1030232201

 41 49  0  0  0  0  0  0  0  0999 V2000
    4.2727    3.2446    0.0000 O   0  0  0  0  0  0  0  0  0  0  0  0
    3.6470    3.7824    0.0000 C   0  0  0  0  0  0  0  0  0  0  0  0
    2.8685    3.5093    0.0000 O   0  0  0  0  0  0  0  0  0  0  0  0
    3.7998    4.5931    0.0000 C   0  0  0  0  0  0  0  0  0  0  0  0
    2.7554    2.9310    0.0000 C   0  0  1  0  0  0  0  0  0  0  0  0
    3.1741    5.1308    0.0000 C   0  0  0  0  0  0  0  0  0  0  0  0
    2.1423    2.3790    0.0000 C   0  0  2  0  0  0  0  0  0  0  0  0
    3.4699    2.5185    0.0000 C   0  0  0  0  0  0  0  0  0  0  0  0
    2.4189    4.9122    0.0000 C   0  0  0  0  0  0  0  0  0  0  0  0
    1.5198    1.4442    0.0000 C   0  0  1  0  0  0  0  0  0  0  0  0
    2.4778    1.6253    0.0000 C   0  0  0  0  0  0  0  0  0  0  0  0
    1.5544    2.8944    0.0000 C   0  0  0  0  0  0  0  0  0  0  0  0
    3.2983    1.7115    0.0000 C   0  0  2  0  0  0  0  0  0  0  0  0
    1.8713    5.3825    0.0000 C   0  0  0  0  0  0  0  0  0  0  0  0
    1.9452    0.7010    0.0000 C   0  0  2  0  0  0  0  0  0  0  0  0
    1.0318    1.2527    0.0000 C   0  0  0  0  0  0  0  0  0  0  0  0
    0.6482    1.3774    0.0000 C   0  0  0  0  0  0  0  0  0  0  0  0
    1.8261    1.2068    0.0000 O   0  0  0  0  0  0  0  0  0  0  0  0
    2.4535    0.8889    0.0000 C   0  0  0  0  0  0  0  0  0  0  0  0
    2.7968    0.7038    0.0000 O   0  0  0  0  0  0  0  0  0  0  0  0
    0.9288    5.1698    0.0000 C   0  0  1  0  0  0  0  0  0  0  0  0
    1.5395    0.0000    0.0000 C   0  0  2  0  0  0  0  0  0  0  0  0
    0.3801    1.8795    0.0000 O   0  0  0  0  0  0  0  0  0  0  0  0
    0.3020    0.7145    0.0000 C   0  0  0  0  0  0  0  0  0  0  0  0
    0.2224    5.5959    0.0000 O   0  0  0  0  0  0  0  0  0  0  0  0
    1.6067    5.5264    0.0000 C   0  0  0  0  0  0  0  0  0  0  0  0
    0.9130    4.3449    0.0000 C   0  0  2  0  0  0  0  0  0  0  0  0
    1.1270   -0.7145    0.0000 O   0  0  0  0  0  0  0  0  0  0  0  0
    0.7145    0.0000    0.0000 C   0  0  1  0  0  0  0  0  0  0  0  0
    0.5329    2.6902    0.0000 C   0  0  0  0  0  0  0  0  0  0  0  0
   -0.4999    5.1972    0.0000 C   0  0  0  0  0  0  0  0  0  0  0  0
    1.9881    6.1892    0.0000 O   0  0  0  0  0  0  0  0  0  0  0  0
    2.1235    4.6757    0.0000 C   0  0  0  0  0  0  0  0  0  0  0  0
    1.6926    4.0750    0.0000 O   0  0  0  0  0  0  0  0  0  0  0  0
    0.1907    3.9462    0.0000 C   0  0  1  0  0  0  0  0  0  0  0  0
    0.0000   -0.4125    0.0000 C   0  0  0  0  0  0  0  0  0  0  0  0
    1.2140    3.0317    0.0000 O   0  0  0  0  0  0  0  0  0  0  0  0
   -0.2354    3.2398    0.0000 C   0  0  0  0  0  0  0  0  0  0  0  0
   -0.5157    4.3723    0.0000 C   0  0  0  0  0  0  0  0  0  0  0  0
    3.0275    4.6819    0.0000 O   0  0  0  0  0  0  0  0  0  0  0  0
    0.5895    3.2239    0.0000 O   0  0  0  0  0  0  0  0  0  0  0  0
  1  2  2  0  0  0  0 
  2  3  1  0  0  0  0 
  2  4  1  0  0  0  0 
  5  3  1  6  0  0  0 
  4  6  2  0  0  0  0 
  7  5  1  0  0  0  0 
  5  8  1  0  0  0  0 
  6  9  1  0  0  0  0 
 10  7  1  0  0  0  0 
  7 11  1  0  0  0  0 
  7 12  1  6  0  0  0 
 13  8  1  0  0  0  0 
  9 14  2  0  0  0  0 
 15 10  1  0  0  0  0 
 10 16  1  1  0  0  0 
 10 17  1  0  0  0  0 
 11 18  1  0  0  0  0 
 11 19  1  0  0  0  0 
 13 20  1  1  0  0  0 
 21 14  1  0  0  0  0 
 22 15  1  0  0  0  0 
 16 23  1  0  0  0  0 
 17 24  1  0  0  0  0 
 21 25  1  1  0  0  0 
 21 26  1  0  0  0  0 
 27 21  1  0  0  0  0 
 22 28  1  6  0  0  0 
 29 22  1  0  0  0  0 
 23 30  1  0  0  0  0 
 25 31  1  0  0  0  0 
 26 32  1  0  0  0  0 
 26 33  1  0  0  0  0 
 27 34  1  6  0  0  0 
 35 27  1  0  0  0  0 
 29 36  1  0  0  0  0 
 30 37  2  0  0  0  0 
 30 38  1  0  0  0  0 
 31 39  1  0  0  0  0 
 33 40  2  0  0  0  0 
 35 41  1  6  0  0  0 
 11 13  1  0  0  0  0 
 15 20  1  6  0  0  0 
 18 19  1  0  0  0  0 
 24 29  1  0  0  0  0 
 29 28  1  6  0  0  0 
 33 34  1  0  0  0  0 
 35 38  1  0  0  0  0 
 35 39  1  0  0  0  0 
 38 41  1  0  0  0  0 
M  END
> <ID>
CHEBI:210099

> <NAME>
Roritoxin C

$$$$

CDK     1030232201

 39 45  0  0  0  0  0  0  0  0999 V2000
    0.7026   -3.5389    0.0000 O   0  0  0  0  0  0  0  0  0  0  0  0
    0.2824   -2.8289    0.0000 C   0  0  0  0  0  0  0  0  0  0  0  0
    0.8968   -2.2783    0.0000 O   0  0  0  0  0  0  0  0  0  0  0  0
   -0.4959   -3.1025    0.0000 C   0  0  0  0  0  0  0  0  0  0  0  0
    1.3347   -1.5373    0.0000 C   0  0  0  0  0  0  0  0  0  0  0  0
   -1.4457   -3.0677    0.0000 C   0  0  0  0  0  0  0  0  0  0  0  0
    1.3830   -0.9024    0.0000 C   0  0  1  0  0  0  0  0  0  0  0  0
   -1.7696   -2.3089    0.0000 C   0  0  0  0  0  0  0  0  0  0  0  0
   -1.9409   -3.7276    0.0000 C   0  0  0  0  0  0  0  0  0  0  0  0
    0.7144    0.0000    0.0000 C   0  0  2  0  0  0  0  0  0  0  0  0
    2.2264   -0.7539    0.0000 C   0  0  2  0  0  0  0  0  0  0  0  0
    1.0049   -1.6678    0.0000 C   0  0  0  0  0  0  0  0  0  0  0  0
   -1.4225   -1.5605    0.0000 O   0  0  0  0  0  0  0  0  0  0  0  0
   -2.5887   -2.2101    0.0000 C   0  0  0  0  0  0  0  0  0  0  0  0
   -2.7599   -3.6288    0.0000 C   0  0  0  0  0  0  0  0  0  0  0  0
    1.5372    0.0604    0.0000 C   0  0  1  0  0  0  0  0  0  0  0  0
    0.4028    0.7639    0.0000 C   0  0  2  0  0  0  0  0  0  0  0  0
    0.0000   -0.4125    0.0000 C   0  0  0  0  0  0  0  0  0  0  0  0
    2.5123    0.0483    0.0000 O   0  0  0  0  0  0  0  0  0  0  0  0
    2.7486   -1.3730    0.0000 C   0  0  0  0  0  0  0  0  0  0  0  0
    1.6571   -2.2954    0.0000 C   0  0  0  0  0  0  0  0  0  0  0  0
   -2.0270   -0.9992    0.0000 C   0  0  0  0  0  0  0  0  0  0  0  0
   -3.0838   -2.8700    0.0000 O   0  0  0  0  0  0  0  0  0  0  0  0
   -2.9536   -1.3551    0.0000 C   0  0  0  0  0  0  0  0  0  0  0  0
   -2.6235   -1.4101    0.0000 C   0  0  0  0  0  0  0  0  0  0  0  0
    1.7101   -0.6946    0.0000 O   0  0  0  0  0  0  0  0  0  0  0  0
    1.7341    0.8615    0.0000 C   0  0  2  0  0  0  0  0  0  0  0  0
    2.2218   -0.2119    0.0000 C   0  0  0  0  0  0  0  0  0  0  0  0
   -0.2693    1.0388    0.0000 O   0  0  0  0  0  0  0  0  0  0  0  0
    1.0329    1.2963    0.0000 C   0  0  0  0  0  0  0  0  0  0  0  0
    2.4691   -2.1493    0.0000 C   0  0  0  0  0  0  0  0  0  0  0  0
   -1.9282   -0.1801    0.0000 O   0  0  0  0  0  0  0  0  0  0  0  0
   -2.8426   -0.4841    0.0000 C   0  0  0  0  0  0  0  0  0  0  0  0
   -3.4962   -1.0534    0.0000 O   0  0  0  0  0  0  0  0  0  0  0  0
   -1.0930    1.0839    0.0000 C   0  0  0  0  0  0  0  0  0  0  0  0
    3.0015   -2.7794    0.0000 C   0  0  0  0  0  0  0  0  0  0  0  0
   -2.4857    0.2597    0.0000 C   0  0  0  0  0  0  0  0  0  0  0  0
   -1.2095    1.9006    0.0000 O   0  0  0  0  0  0  0  0  0  0  0  0
   -1.8713    0.8103    0.0000 C   0  0  0  0  0  0  0  0  0  0  0  0
  1  2  2  0  0  0  0 
  2  3  1  0  0  0  0 
  2  4  1  0  0  0  0 
  3  5  1  0  0  0  0 
  4  6  2  0  0  0  0 
  7  5  1  1  0  0  0 
  6  8  1  0  0  0  0 
  6  9  1  0  0  0  0 
 10  7  1  0  0  0  0 
 11  7  1  0  0  0  0 
  7 12  1  0  0  0  0 
  8 13  1  0  0  0  0 
  8 14  1  0  0  0  0 
  9 15  1  0  0  0  0 
 16 10  1  0  0  0  0 
 17 10  1  0  0  0  0 
 10 18  1  6  0  0  0 
 11 19  1  6  0  0  0 
 11 20  1  0  0  0  0 
 12 21  1  0  0  0  0 
 13 22  1  0  0  0  0 
 14 23  1  0  0  0  0 
 14 24  1  0  0  0  0 
 14 25  1  0  0  0  0 
 16 26  1  6  0  0  0 
 27 16  1  0  0  0  0 
 16 28  1  0  0  0  0 
 17 29  1  6  0  0  0 
 17 30  1  0  0  0  0 
 20 31  2  0  0  0  0 
 22 32  2  0  0  0  0 
 24 33  2  0  0  0  0 
 25 34  1  0  0  0  0 
 29 35  1  0  0  0  0 
 31 36  1  0  0  0  0 
 33 37  1  0  0  0  0 
 35 38  2  0  0  0  0 
 35 39  1  0  0  0  0 
 15 23  1  0  0  0  0 
 27 19  1  1  0  0  0 
 21 31  1  0  0  0  0 
 22 25  1  0  0  0  0 
 26 28  1  0  0  0  0 
 27 30  1  0  0  0  0 
 37 39  2  0  0  0  0 
M  END
> <ID>
CHEBI:211119

> <NAME>
2,3-deoxyroritoxin D

$$$$

CDK     1030232201

 46 50  0  0  0  0  0  0  0  0999 V2000
    7.8593   -4.9501    0.0000 O   0  0  0  0  0  0  0  0  0  0  0  0
    7.8593   -4.1250    0.0000 C   0  0  0  0  0  0  0  0  0  0  0  0
    8.5850   -3.7030    0.0000 O   0  0  0  0  0  0  0  0  0  0  0  0
    7.1448   -3.7126    0.0000 C   0  0  0  0  0  0  0  0  0  0  0  0
    8.6005   -2.9668    0.0000 C   0  0  0  0  0  0  0  0  0  0  0  0
    7.1448   -2.8875    0.0000 C   0  0  0  0  0  0  0  0  0  0  0  0
    9.0598   -2.6916    0.0000 C   0  0  1  0  0  0  0  0  0  0  0  0
    6.4303   -2.4751    0.0000 C   0  0  0  0  0  0  0  0  0  0  0  0
    7.8593   -2.4751    0.0000 C   0  0  0  0  0  0  0  0  0  0  0  0
    9.4985   -1.6578    0.0000 C   0  0  2  0  0  0  0  0  0  0  0  0
    9.6155   -3.3433    0.0000 C   0  0  2  0  0  0  0  0  0  0  0  0
    8.2174   -2.8502    0.0000 C   0  0  0  0  0  0  0  0  0  0  0  0
    6.4303   -1.6500    0.0000 C   0  0  0  0  0  0  0  0  0  0  0  0
    7.8593   -1.6500    0.0000 O   0  0  0  0  0  0  0  0  0  0  0  0
    9.9678   -2.3363    0.0000 C   0  0  1  0  0  0  0  0  0  0  0  0
    9.9987   -1.0018    0.0000 C   0  0  2  0  0  0  0  0  0  0  0  0
    8.7806   -1.2512    0.0000 C   0  0  0  0  0  0  0  0  0  0  0  0
   10.4519   -3.1828    0.0000 O   0  0  0  0  0  0  0  0  0  0  0  0
    9.3467   -4.1073    0.0000 C   0  0  0  0  0  0  0  0  0  0  0  0
    7.9840   -3.6097    0.0000 C   0  0  0  0  0  0  0  0  0  0  0  0
    5.7158   -1.2375    0.0000 O   0  0  0  0  0  0  0  0  0  0  0  0
    9.4048   -2.8682    0.0000 O   0  0  0  0  0  0  0  0  0  0  0  0
   10.7582   -2.0996    0.0000 C   0  0  2  0  0  0  0  0  0  0  0  0
   10.0803   -3.0644    0.0000 C   0  0  0  0  0  0  0  0  0  0  0  0
   10.0027   -0.4125    0.0000 O   0  0  0  0  0  0  0  0  0  0  0  0
   10.7772   -1.2748    0.0000 C   0  0  0  0  0  0  0  0  0  0  0  0
    8.5360   -4.2601    0.0000 C   0  0  0  0  0  0  0  0  0  0  0  0
    5.7158   -0.4125    0.0000 C   0  0  2  0  0  0  0  0  0  0  0  0
    9.2883    0.0000    0.0000 C   0  0  0  0  0  0  0  0  0  0  0  0
    8.2630   -5.0386    0.0000 C   0  0  0  0  0  0  0  0  0  0  0  0
    6.4303    0.0000    0.0000 C   0  0  0  0  0  0  0  0  0  0  0  0
    5.0014    0.0000    0.0000 C   0  0  2  0  0  0  0  0  0  0  0  0
    9.2883    0.8250    0.0000 O   0  0  0  0  0  0  0  0  0  0  0  0
    8.5738   -0.4125    0.0000 C   0  0  0  0  0  0  0  0  0  0  0  0
    7.1448   -0.4125    0.0000 C   0  0  0  0  0  0  0  0  0  0  0  0
    4.2869   -0.4125    0.0000 O   0  0  0  0  0  0  0  0  0  0  0  0
    5.0014    0.8250    0.0000 C   0  0  0  0  0  0  0  0  0  0  0  0
    7.8593    0.0000    0.0000 C   0  0  0  0  0  0  0  0  0  0  0  0
    3.5724    0.0000    0.0000 C   0  0  0  0  0  0  0  0  0  0  0  0
    2.8579   -0.4125    0.0000 C   0  0  0  0  0  0  0  0  0  0  0  0
    2.1434    0.0000    0.0000 C   0  0  0  0  0  0  0  0  0  0  0  0
    1.4290   -0.4125    0.0000 C   0  0  0  0  0  0  0  0  0  0  0  0
    2.1434    0.8250    0.0000 C   0  0  0  0  0  0  0  0  0  0  0  0
    0.7145    0.0000    0.0000 C   0  0  0  0  0  0  0  0  0  0  0  0
    0.7145    0.8250    0.0000 O   0  0  0  0  0  0  0  0  0  0  0  0
    0.0000   -0.4125    0.0000 O   0  0  0  0  0  0  0  0  0  0  0  0
  1  2  2  0  0  0  0 
  2  3  1  0  0  0  0 
  2  4  1  0  0  0  0 
  3  5  1  0  0  0  0 
  4  6  2  0  0  0  0 
  7  5  1  1  0  0  0 
  6  8  1  0  0  0  0 
  6  9  1  0  0  0  0 
 10  7  1  0  0  0  0 
 11  7  1  0  0  0  0 
  7 12  1  0  0  0  0 
  8 13  1  0  0  0  0 
  9 14  1  0  0  0  0 
 15 10  1  0  0  0  0 
 16 10  1  0  0  0  0 
 10 17  1  6  0  0  0 
 11 18  1  6  0  0  0 
 11 19  1  0  0  0  0 
 12 20  1  0  0  0  0 
 13 21  1  0  0  0  0 
 15 22  1  6  0  0  0 
 23 15  1  0  0  0  0 
 15 24  1  0  0  0  0 
 16 25  1  6  0  0  0 
 16 26  1  0  0  0  0 
 19 27  2  0  0  0  0 
 28 21  1  1  0  0  0 
 25 29  1  0  0  0  0 
 27 30  1  0  0  0  0 
 28 31  1  0  0  0  0 
 32 28  1  0  0  0  0 
 29 33  2  0  0  0  0 
 29 34  1  0  0  0  0 
 31 35  2  3  0  0  0 
 32 36  1  6  0  0  0 
 32 37  1  0  0  0  0 
 34 38  2  0  0  0  0 
 36 39  1  0  0  0  0 
 39 40  1  0  0  0  0 
 40 41  1  0  0  0  0 
 41 42  2  0  0  0  0 
 41 43  1  0  0  0  0 
 42 44  1  0  0  0  0 
 44 45  2  0  0  0  0 
 44 46  1  0  0  0  0 
 23 18  1  1  0  0  0 
 20 27  1  0  0  0  0 
 22 24  1  0  0  0  0 
 23 26  1  0  0  0  0 
 35 38  1  0  0  0  0 
M  END
> <ID>
CHEBI:211550

> <NAME>
Roridin Q

$$$$

CDK     1030232201

 30 33  0  0  0  0  0  0  0  0999 V2000
    5.0014    0.8250    0.0000 O   0  0  0  0  0  0  0  0  0  0  0  0
    5.0014    0.0000    0.0000 C   0  0  0  0  0  0  0  0  0  0  0  0
    5.7159   -0.4125    0.0000 O   0  0  0  0  0  0  0  0  0  0  0  0
    4.2870   -0.4125    0.0000 C   0  0  0  0  0  0  0  0  0  0  0  0
    6.4304    0.0000    0.0000 C   0  0  1  0  0  0  0  0  0  0  0  0
    3.5724    0.0000    0.0000 C   0  0  0  0  0  0  0  0  0  0  0  0
    7.1841   -0.3355    0.0000 C   0  0  2  0  0  0  0  0  0  0  0  0
    6.5167    0.8205    0.0000 C   0  0  0  0  0  0  0  0  0  0  0  0
    3.5724    0.8250    0.0000 C   0  0  0  0  0  0  0  0  0  0  0  0
    8.2912   -0.5241    0.0000 C   0  0  2  0  0  0  0  0  0  0  0  0
    7.7361    0.2775    0.0000 C   0  0  0  0  0  0  0  0  0  0  0  0
    6.9539   -1.1278    0.0000 C   0  0  0  0  0  0  0  0  0  0  0  0
    7.3236    0.9920    0.0000 C   0  0  2  0  0  0  0  0  0  0  0  0
    2.8579    1.2375    0.0000 C   0  0  0  0  0  0  0  0  0  0  0  0
    8.7972    0.1668    0.0000 C   0  0  2  0  0  0  0  0  0  0  0  0
    8.6327   -1.2535    0.0000 C   0  0  0  0  0  0  0  0  0  0  0  0
    7.7984   -1.1570    0.0000 C   0  0  0  0  0  0  0  0  0  0  0  0
    8.3835   -0.1477    0.0000 O   0  0  0  0  0  0  0  0  0  0  0  0
    8.4187    0.5548    0.0000 C   0  0  0  0  0  0  0  0  0  0  0  0
    8.4483    0.9437    0.0000 O   0  0  0  0  0  0  0  0  0  0  0  0
    2.8579    2.0625    0.0000 C   0  0  2  0  0  0  0  0  0  0  0  0
    9.6026    0.0813    0.0000 C   0  0  0  0  0  0  0  0  0  0  0  0
    9.4532   -1.3397    0.0000 C   0  0  0  0  0  0  0  0  0  0  0  0
    8.1181   -1.9176    0.0000 O   0  0  0  0  0  0  0  0  0  0  0  0
    3.5724    2.4751    0.0000 O   0  0  0  0  0  0  0  0  0  0  0  0
    2.1435    2.4751    0.0000 C   0  0  1  0  0  0  0  0  0  0  0  0
    9.9382   -0.6723    0.0000 C   0  0  0  0  0  0  0  0  0  0  0  0
    1.4290    2.0625    0.0000 O   0  0  0  0  0  0  0  0  0  0  0  0
    2.1435    3.3001    0.0000 C   0  0  0  0  0  0  0  0  0  0  0  0
   10.7586   -0.7585    0.0000 C   0  0  0  0  0  0  0  0  0  0  0  0
  1  2  2  0  0  0  0 
  2  3  1  0  0  0  0 
  2  4  1  0  0  0  0 
  5  3  1  6  0  0  0 
  4  6  2  0  0  0  0 
  7  5  1  0  0  0  0 
  5  8  1  0  0  0  0 
  6  9  1  0  0  0  0 
 10  7  1  0  0  0  0 
  7 11  1  0  0  0  0 
  7 12  1  6  0  0  0 
 13  8  1  0  0  0  0 
  9 14  2  0  0  0  0 
 15 10  1  0  0  0  0 
 10 16  1  0  0  0  0 
 10 17  1  1  0  0  0 
 11 18  1  0  0  0  0 
 11 19  1  0  0  0  0 
 13 20  1  1  0  0  0 
 21 14  1  0  0  0  0 
 15 22  1  0  0  0  0 
 16 23  1  0  0  0  0 
 17 24  1  0  0  0  0 
 21 25  1  1  0  0  0 
 26 21  1  0  0  0  0 
 22 27  2  0  0  0  0 
 26 28  1  1  0  0  0 
 26 29  1  0  0  0  0 
 27 30  1  0  0  0  0 
 11 13  1  0  0  0  0 
 15 20  1  6  0  0  0 
 18 19  1  0  0  0  0 
 23 27  1  0  0  0  0 
M  END
> <ID>
CHEBI:211842

> <NAME>
Trichoverrol A

$$$$

CDK     1030232201

 44 49  0  0  0  0  0  0  0  0999 V2000
    4.9443   -0.9103    0.0000 O   0  0  0  0  0  0  0  0  0  0  0  0
    5.0014   -1.6501    0.0000 C   0  0  0  0  0  0  0  0  0  0  0  0
    5.7159   -2.0625    0.0000 O   0  0  0  0  0  0  0  0  0  0  0  0
    4.2869   -2.0625    0.0000 C   0  0  0  0  0  0  0  0  0  0  0  0
    6.5230   -1.6550    0.0000 C   0  0  0  0  0  0  0  0  0  0  0  0
    3.5724   -1.6501    0.0000 C   0  0  0  0  0  0  0  0  0  0  0  0
    6.5038   -1.1311    0.0000 C   0  0  1  0  0  0  0  0  0  0  0  0
    3.5724   -0.8250    0.0000 C   0  0  1  0  0  0  0  0  0  0  0  0
    2.8579   -2.0625    0.0000 C   0  0  0  0  0  0  0  0  0  0  0  0
    5.8277   -0.2343    0.0000 C   0  0  2  0  0  0  0  0  0  0  0  0
    7.3459   -0.9757    0.0000 C   0  0  0  0  0  0  0  0  0  0  0  0
    6.2784   -1.9757    0.0000 C   0  0  0  0  0  0  0  0  0  0  0  0
    4.2869   -0.4125    0.0000 O   0  0  0  0  0  0  0  0  0  0  0  0
    2.8579   -0.4125    0.0000 C   0  0  0  0  0  0  0  0  0  0  0  0
    2.1434   -1.6501    0.0000 C   0  0  0  0  0  0  0  0  0  0  0  0
    6.6500   -0.1671    0.0000 C   0  0  2  0  0  0  0  0  0  0  0  0
    5.5097    0.5269    0.0000 C   0  0  2  0  0  0  0  0  0  0  0  0
    5.1452   -0.6101    0.0000 C   0  0  0  0  0  0  0  0  0  0  0  0
    7.6251   -0.1711    0.0000 O   0  0  0  0  0  0  0  0  0  0  0  0
    7.8732   -1.5905    0.0000 C   0  0  0  0  0  0  0  0  0  0  0  0
    6.7894   -2.5219    0.0000 C   0  0  0  0  0  0  0  0  0  0  0  0
    4.2869    0.4125    0.0000 C   0  0  0  0  0  0  0  0  0  0  0  0
    2.1434   -0.8250    0.0000 O   0  0  0  0  0  0  0  0  0  0  0  0
    2.8579    0.4125    0.0000 C   0  0  0  0  0  0  0  0  0  0  0  0
    2.1434    0.0000    0.0000 C   0  0  0  0  0  0  0  0  0  0  0  0
    6.8292   -0.9207    0.0000 O   0  0  0  0  0  0  0  0  0  0  0  0
    6.8401    0.6357    0.0000 C   0  0  0  0  0  0  0  0  0  0  0  0
    7.3368   -0.4338    0.0000 C   0  0  0  0  0  0  0  0  0  0  0  0
    5.0957    0.7307    0.0000 O   0  0  0  0  0  0  0  0  0  0  0  0
    6.1354    1.0646    0.0000 C   0  0  0  0  0  0  0  0  0  0  0  0
    7.6001   -2.3690    0.0000 C   0  0  0  0  0  0  0  0  0  0  0  0
    3.7647    0.8039    0.0000 O   0  0  0  0  0  0  0  0  0  0  0  0
    4.8982    0.9282    0.0000 C   0  0  0  0  0  0  0  0  0  0  0  0
    3.4635    0.8370    0.0000 C   0  0  0  0  0  0  0  0  0  0  0  0
    1.4290   -0.4125    0.0000 O   0  0  0  0  0  0  0  0  0  0  0  0
    2.1434    0.8250    0.0000 C   0  0  0  0  0  0  0  0  0  0  0  0
    5.0014    1.6501    0.0000 C   0  0  0  0  0  0  0  0  0  0  0  0
    8.1378   -2.9947    0.0000 C   0  0  0  0  0  0  0  0  0  0  0  0
    3.5724    1.6501    0.0000 C   0  0  0  0  0  0  0  0  0  0  0  0
    0.7145    0.0000    0.0000 C   0  0  0  0  0  0  0  0  0  0  0  0
    5.7159    2.0625    0.0000 O   0  0  0  0  0  0  0  0  0  0  0  0
    4.2869    2.0625    0.0000 C   0  0  0  0  0  0  0  0  0  0  0  0
    0.7145    0.8250    0.0000 O   0  0  0  0  0  0  0  0  0  0  0  0
    0.0000   -0.4125    0.0000 C   0  0  0  0  0  0  0  0  0  0  0  0
  1  2  2  0  0  0  0 
  2  3  1  0  0  0  0 
  2  4  1  0  0  0  0 
  3  5  1  0  0  0  0 
  4  6  2  3  0  0  0 
  7  5  1  1  0  0  0 
  8  6  1  0  0  0  0 
  6  9  1  0  0  0  0 
 10  7  1  0  0  0  0 
  7 11  1  0  0  0  0 
  7 12  1  0  0  0  0 
  8 13  1  6  0  0  0 
  8 14  1  0  0  0  0 
  9 15  1  0  0  0  0 
 16 10  1  0  0  0  0 
 17 10  1  0  0  0  0 
 10 18  1  6  0  0  0 
 11 19  1  0  0  0  0 
 11 20  1  0  0  0  0 
 12 21  1  0  0  0  0 
 13 22  1  0  0  0  0 
 14 23  1  0  0  0  0 
 14 24  1  0  0  0  0 
 14 25  1  0  0  0  0 
 16 26  1  1  0  0  0 
 16 27  1  0  0  0  0 
 16 28  1  0  0  0  0 
 17 29  1  6  0  0  0 
 17 30  1  0  0  0  0 
 20 31  2  0  0  0  0 
 22 32  2  0  0  0  0 
 22 33  1  0  0  0  0 
 24 34  2  3  0  0  0 
 25 35  1  0  0  0  0 
 25 36  1  0  0  0  0 
 29 37  1  0  0  0  0 
 31 38  1  0  0  0  0 
 34 39  1  0  0  0  0 
 35 40  1  0  0  0  0 
 37 41  2  0  0  0  0 
 37 42  1  0  0  0  0 
 40 43  2  0  0  0  0 
 40 44  1  0  0  0  0 
 15 23  1  0  0  0  0 
 19 27  1  0  0  0  0 
 21 31  1  0  0  0  0 
 26 28  1  0  0  0  0 
 27 30  1  0  0  0  0 
 39 42  2  0  0  0  0 
M  END
> <ID>
CHEBI:212018

> <NAME>
Satratoxin H 12',13'-diacetate

$$$$

CDK     1030232201

 38 41  0  0  0  0  0  0  0  0999 V2000
    5.0014    0.8250    0.0000 O   0  0  0  0  0  0  0  0  0  0  0  0
    5.0014    0.0000    0.0000 C   0  0  0  0  0  0  0  0  0  0  0  0
    5.7159   -0.4125    0.0000 O   0  0  0  0  0  0  0  0  0  0  0  0
    4.2870   -0.4125    0.0000 C   0  0  0  0  0  0  0  0  0  0  0  0
    6.4304    0.0000    0.0000 C   0  0  1  0  0  0  0  0  0  0  0  0
    3.5724    0.0000    0.0000 C   0  0  0  0  0  0  0  0  0  0  0  0
    7.1841   -0.3355    0.0000 C   0  0  2  0  0  0  0  0  0  0  0  0
    6.5167    0.8205    0.0000 C   0  0  0  0  0  0  0  0  0  0  0  0
    3.5724    0.8250    0.0000 C   0  0  0  0  0  0  0  0  0  0  0  0
    8.2912   -0.5241    0.0000 C   0  0  2  0  0  0  0  0  0  0  0  0
    7.7361    0.2775    0.0000 C   0  0  2  0  0  0  0  0  0  0  0  0
    6.9539   -1.1278    0.0000 C   0  0  0  0  0  0  0  0  0  0  0  0
    7.3236    0.9920    0.0000 C   0  0  2  0  0  0  0  0  0  0  0  0
    2.8579    1.2375    0.0000 C   0  0  0  0  0  0  0  0  0  0  0  0
    8.7972    0.1668    0.0000 C   0  0  2  0  0  0  0  0  0  0  0  0
    8.6327   -1.2535    0.0000 C   0  0  0  0  0  0  0  0  0  0  0  0
    7.7984   -1.1570    0.0000 C   0  0  0  0  0  0  0  0  0  0  0  0
    8.3835   -0.1477    0.0000 O   0  0  0  0  0  0  0  0  0  0  0  0
    8.4187    0.5548    0.0000 C   0  0  0  0  0  0  0  0  0  0  0  0
    8.4483    0.9437    0.0000 O   0  0  0  0  0  0  0  0  0  0  0  0
    2.8579    2.0625    0.0000 C   0  0  1  0  0  0  0  0  0  0  0  0
    9.6026    0.0813    0.0000 C   0  0  0  0  0  0  0  0  0  0  0  0
    9.4532   -1.3397    0.0000 C   0  0  0  0  0  0  0  0  0  0  0  0
    8.1181   -1.9176    0.0000 O   0  0  0  0  0  0  0  0  0  0  0  0
    3.5724    2.4751    0.0000 O   0  0  0  0  0  0  0  0  0  0  0  0
    2.1435    2.4751    0.0000 C   0  0  2  0  0  0  0  0  0  0  0  0
    9.9382   -0.6723    0.0000 C   0  0  0  0  0  0  0  0  0  0  0  0
    7.6194   -2.5747    0.0000 C   0  0  0  0  0  0  0  0  0  0  0  0
    1.4290    2.0625    0.0000 O   0  0  0  0  0  0  0  0  0  0  0  0
    2.1435    3.3001    0.0000 C   0  0  0  0  0  0  0  0  0  0  0  0
   10.7586   -0.7585    0.0000 C   0  0  0  0  0  0  0  0  0  0  0  0
    6.8008   -2.4713    0.0000 O   0  0  0  0  0  0  0  0  0  0  0  0
    7.9391   -3.3353    0.0000 C   0  0  0  0  0  0  0  0  0  0  0  0
    7.4403   -3.9924    0.0000 C   0  0  0  0  0  0  0  0  0  0  0  0
    7.7600   -4.7530    0.0000 C   0  0  0  0  0  0  0  0  0  0  0  0
    6.6218   -3.8891    0.0000 C   0  0  0  0  0  0  0  0  0  0  0  0
    7.2612   -5.4101    0.0000 C   0  0  0  0  0  0  0  0  0  0  0  0
    7.5810   -6.1707    0.0000 O   0  0  0  0  0  0  0  0  0  0  0  0
  1  2  2  0  0  0  0 
  2  3  1  0  0  0  0 
  2  4  1  0  0  0  0 
  5  3  1  6  0  0  0 
  4  6  2  0  0  0  0 
  7  5  1  0  0  0  0 
  5  8  1  0  0  0  0 
  6  9  1  0  0  0  0 
 10  7  1  0  0  0  0 
 11  7  1  0  0  0  0 
  7 12  1  6  0  0  0 
 13  8  1  0  0  0  0 
  9 14  2  0  0  0  0 
 15 10  1  0  0  0  0 
 10 16  1  0  0  0  0 
 10 17  1  1  0  0  0 
 11 18  1  6  0  0  0 
 11 19  1  0  0  0  0 
 13 20  1  1  0  0  0 
 21 14  1  0  0  0  0 
 15 22  1  0  0  0  0 
 16 23  1  0  0  0  0 
 17 24  1  0  0  0  0 
 21 25  1  6  0  0  0 
 26 21  1  0  0  0  0 
 22 27  2  0  0  0  0 
 24 28  1  0  0  0  0 
 26 29  1  6  0  0  0 
 26 30  1  0  0  0  0 
 27 31  1  0  0  0  0 
 28 32  2  0  0  0  0 
 28 33  1  0  0  0  0 
 33 34  1  0  0  0  0 
 34 35  2  0  0  0  0 
 34 36  1  0  0  0  0 
 35 37  1  0  0  0  0 
 37 38  1  0  0  0  0 
 11 13  1  0  0  0  0 
 15 20  1  6  0  0  0 
 18 19  1  0  0  0  0 
 23 27  1  0  0  0  0 
M  END
> <ID>
CHEBI:212468

> <NAME>
Trichoverrin C

$$$$

CDK     1030232201

 38 42  0  0  0  0  0  0  0  0999 V2000
    2.8579    1.2375    0.0000 O   0  0  0  0  0  0  0  0  0  0  0  0
    2.1434    0.8250    0.0000 C   0  0  0  0  0  0  0  0  0  0  0  0
    1.4162    1.2420    0.0000 O   0  0  0  0  0  0  0  0  0  0  0  0
    2.1434    0.0000    0.0000 C   0  0  0  0  0  0  0  0  0  0  0  0
    0.7651    0.9028    0.0000 C   0  0  0  0  0  0  0  0  0  0  0  0
    1.4289   -0.4125    0.0000 C   0  0  0  0  0  0  0  0  0  0  0  0
    0.3018    1.1480    0.0000 C   0  0  1  0  0  0  0  0  0  0  0  0
    1.4289   -1.2375    0.0000 C   0  0  0  0  0  0  0  0  0  0  0  0
    0.7145    0.0000    0.0000 C   0  0  0  0  0  0  0  0  0  0  0  0
   -0.8128    1.0109    0.0000 C   0  0  2  0  0  0  0  0  0  0  0  0
    0.5882    1.9550    0.0000 C   0  0  2  0  0  0  0  0  0  0  0  0
    0.8432    0.5230    0.0000 C   0  0  0  0  0  0  0  0  0  0  0  0
    0.7145   -1.6500    0.0000 C   0  0  0  0  0  0  0  0  0  0  0  0
    0.0000   -0.4125    0.0000 O   0  0  0  0  0  0  0  0  0  0  0  0
   -0.4599    1.7567    0.0000 C   0  0  1  0  0  0  0  0  0  0  0  0
   -1.6311    1.1161    0.0000 C   0  0  2  0  0  0  0  0  0  0  0  0
   -0.8060    0.1860    0.0000 C   0  0  0  0  0  0  0  0  0  0  0  0
    0.0311    2.5991    0.0000 O   0  0  0  0  0  0  0  0  0  0  0  0
    1.3843    2.1042    0.0000 C   0  0  0  0  0  0  0  0  0  0  0  0
    1.6345    0.6748    0.0000 C   0  0  0  0  0  0  0  0  0  0  0  0
    0.7145   -2.4750    0.0000 O   0  0  0  0  0  0  0  0  0  0  0  0
    0.2823    1.5351    0.0000 O   0  0  0  0  0  0  0  0  0  0  0  0
   -1.0601    2.3227    0.0000 C   0  0  2  0  0  0  0  0  0  0  0  0
    0.1144    2.2181    0.0000 C   0  0  0  0  0  0  0  0  0  0  0  0
   -2.1434    0.8250    0.0000 O   0  0  0  0  0  0  0  0  0  0  0  0
   -1.7839    1.9268    0.0000 C   0  0  0  0  0  0  0  0  0  0  0  0
    1.9220    1.4786    0.0000 C   0  0  0  0  0  0  0  0  0  0  0  0
    0.0000   -2.8875    0.0000 C   0  0  2  0  0  0  0  0  0  0  0  0
   -2.1434    0.0000    0.0000 C   0  0  0  0  0  0  0  0  0  0  0  0
    2.7327    1.6314    0.0000 C   0  0  0  0  0  0  0  0  0  0  0  0
   -0.7145   -2.4750    0.0000 C   0  0  0  0  0  0  0  0  0  0  0  0
    0.0000   -3.7125    0.0000 C   0  0  2  0  0  0  0  0  0  0  0  0
   -2.8579   -0.4125    0.0000 O   0  0  0  0  0  0  0  0  0  0  0  0
   -1.4289   -0.4125    0.0000 C   0  0  0  0  0  0  0  0  0  0  0  0
   -0.7145   -1.6500    0.0000 C   0  0  0  0  0  0  0  0  0  0  0  0
   -0.7145   -4.1250    0.0000 O   0  0  0  0  0  0  0  0  0  0  0  0
    0.7145   -4.1250    0.0000 C   0  0  0  0  0  0  0  0  0  0  0  0
   -1.4289   -1.2375    0.0000 C   0  0  0  0  0  0  0  0  0  0  0  0
  1  2  2  0  0  0  0 
  2  3  1  0  0  0  0 
  2  4  1  0  0  0  0 
  3  5  1  0  0  0  0 
  4  6  2  3  0  0  0 
  7  5  1  1  0  0  0 
  6  8  1  0  0  0  0 
  6  9  1  0  0  0  0 
 10  7  1  0  0  0  0 
 11  7  1  0  0  0  0 
  7 12  1  0  0  0  0 
  8 13  1  0  0  0  0 
  9 14  1  0  0  0  0 
 15 10  1  0  0  0  0 
 16 10  1  0  0  0  0 
 10 17  1  6  0  0  0 
 11 18  1  6  0  0  0 
 11 19  1  0  0  0  0 
 12 20  1  0  0  0  0 
 13 21  1  0  0  0  0 
 15 22  1  6  0  0  0 
 23 15  1  0  0  0  0 
 15 24  1  0  0  0  0 
 16 25  1  6  0  0  0 
 16 26  1  0  0  0  0 
 19 27  2  0  0  0  0 
 28 21  1  1  0  0  0 
 25 29  1  0  0  0  0 
 27 30  1  0  0  0  0 
 28 31  1  0  0  0  0 
 32 28  1  0  0  0  0 
 29 33  2  0  0  0  0 
 29 34  1  0  0  0  0 
 31 35  2  3  0  0  0 
 32 36  1  1  0  0  0 
 32 37  1  0  0  0  0 
 34 38  2  0  0  0  0 
 23 18  1  1  0  0  0 
 20 27  1  0  0  0  0 
 22 24  1  0  0  0  0 
 23 26  1  0  0  0  0 
 35 38  1  0  0  0  0 
M  END
> <ID>
CHEBI:212953

> <NAME>
12'-Hydroxyroridin E

$$$$

CDK     1030232201

 25 29  0  0  0  0  0  0  0  0999 V2000
    1.4290    1.2375    0.0000 O   0  0  0  0  0  0  0  0  0  0  0  0
    2.1435    0.8250    0.0000 C   0  0  0  0  0  0  0  0  0  0  0  0
    2.1435    0.0000    0.0000 C   0  0  0  0  0  0  0  0  0  0  0  0
    2.8579    1.2375    0.0000 C   0  0  0  0  0  0  0  0  0  0  0  0
    2.8579   -0.4125    0.0000 C   0  0  0  0  0  0  0  0  0  0  0  0
    1.4290   -0.4125    0.0000 C   0  0  0  0  0  0  0  0  0  0  0  0
    3.5724    0.8250    0.0000 C   0  0  0  0  0  0  0  0  0  0  0  0
    2.8579    2.0625    0.0000 C   0  0  0  0  0  0  0  0  0  0  0  0
    3.5724    0.0000    0.0000 O   0  0  0  0  0  0  0  0  0  0  0  0
    2.8579   -1.2375    0.0000 C   0  0  0  0  0  0  0  0  0  0  0  0
    0.7145    0.0000    0.0000 O   0  0  0  0  0  0  0  0  0  0  0  0
    1.4290   -1.2375    0.0000 C   0  0  0  0  0  0  0  0  0  0  0  0
    4.2870    1.2375    0.0000 C   0  0  0  0  0  0  0  0  0  0  0  0
    2.1435    2.4751    0.0000 O   0  0  0  0  0  0  0  0  0  0  0  0
    3.5724    2.4751    0.0000 C   0  0  0  0  0  0  0  0  0  0  0  0
    2.1435   -1.6500    0.0000 C   0  0  0  0  0  0  0  0  0  0  0  0
    3.4710   -1.7895    0.0000 C   0  0  0  0  0  0  0  0  0  0  0  0
    0.0000   -0.4125    0.0000 C   0  0  0  0  0  0  0  0  0  0  0  0
    4.2870    2.0625    0.0000 C   0  0  0  0  0  0  0  0  0  0  0  0
    1.4290    2.0625    0.0000 C   0  0  0  0  0  0  0  0  0  0  0  0
    2.3150   -2.4570    0.0000 O   0  0  0  0  0  0  0  0  0  0  0  0
    3.1355   -2.5433    0.0000 C   0  0  0  0  0  0  0  0  0  0  0  0
    4.2916   -1.8758    0.0000 C   0  0  0  0  0  0  0  0  0  0  0  0
    3.7486   -3.0953    0.0000 O   0  0  0  0  0  0  0  0  0  0  0  0
    4.4631   -2.6828    0.0000 C   0  0  0  0  0  0  0  0  0  0  0  0
  1  2  2  0  0  0  0 
  2  3  1  0  0  0  0 
  2  4  1  0  0  0  0 
  3  5  2  0  0  0  0 
  3  6  1  0  0  0  0 
  4  7  2  0  0  0  0 
  4  8  1  0  0  0  0 
  5  9  1  0  0  0  0 
  5 10  1  0  0  0  0 
  6 11  1  0  0  0  0 
  6 12  2  0  0  0  0 
  7 13  1  0  0  0  0 
  8 14  1  0  0  0  0 
  8 15  2  0  0  0  0 
 10 16  2  0  0  0  0 
 10 17  1  0  0  0  0 
 11 18  1  0  0  0  0 
 13 19  2  0  0  0  0 
 14 20  1  0  0  0  0 
 16 21  1  0  0  0  0 
 17 22  1  0  0  0  0 
 17 23  1  0  0  0  0 
 22 24  1  0  0  0  0 
 23 25  1  0  0  0  0 
  7  9  1  0  0  0  0 
 12 16  1  0  0  0  0 
 15 19  1  0  0  0  0 
 21 22  1  0  0  0  0 
 24 25  1  0  0  0  0 
M  END
> <ID>
CHEBI:213463

> <NAME>
Dihydro-O-Methylsterigmatocystin

$$$$

CDK     1030232201

 37 41  0  0  0  0  0  0  0  0999 V2000
    2.1434   -4.9499    0.0000 O   0  0  0  0  0  0  0  0  0  0  0  0
    2.1434   -4.1249    0.0000 C   0  0  0  0  0  0  0  0  0  0  0  0
    2.8579   -3.7125    0.0000 O   0  0  0  0  0  0  0  0  0  0  0  0
    1.4289   -3.7125    0.0000 C   0  0  0  0  0  0  0  0  0  0  0  0
    3.6047   -4.2099    0.0000 C   0  0  0  0  0  0  0  0  0  0  0  0
    1.4289   -2.8875    0.0000 C   0  0  0  0  0  0  0  0  0  0  0  0
    4.0584   -3.9291    0.0000 C   0  0  1  0  0  0  0  0  0  0  0  0
    0.7145   -2.4750    0.0000 C   0  0  0  0  0  0  0  0  0  0  0  0
    2.1434   -2.4750    0.0000 C   0  0  0  0  0  0  0  0  0  0  0  0
    4.4970   -2.8952    0.0000 C   0  0  2  0  0  0  0  0  0  0  0  0
    4.6141   -4.5807    0.0000 C   0  0  2  0  0  0  0  0  0  0  0  0
    3.2069   -4.1530    0.0000 C   0  0  0  0  0  0  0  0  0  0  0  0
    0.7145   -1.6500    0.0000 C   0  0  0  0  0  0  0  0  0  0  0  0
    4.9663   -3.5737    0.0000 C   0  0  1  0  0  0  0  0  0  0  0  0
    4.9972   -2.2392    0.0000 C   0  0  2  0  0  0  0  0  0  0  0  0
    3.7791   -2.4887    0.0000 C   0  0  0  0  0  0  0  0  0  0  0  0
    5.4504   -4.4202    0.0000 O   0  0  0  0  0  0  0  0  0  0  0  0
    4.3453   -5.3447    0.0000 C   0  0  0  0  0  0  0  0  0  0  0  0
    2.9969   -4.8718    0.0000 C   0  0  0  0  0  0  0  0  0  0  0  0
    1.4289   -1.2375    0.0000 O   0  0  0  0  0  0  0  0  0  0  0  0
    4.4033   -4.1057    0.0000 O   0  0  0  0  0  0  0  0  0  0  0  0
    5.7567   -3.3370    0.0000 C   0  0  2  0  0  0  0  0  0  0  0  0
    5.0788   -4.3018    0.0000 C   0  0  0  0  0  0  0  0  0  0  0  0
    5.0013   -1.6500    0.0000 O   0  0  0  0  0  0  0  0  0  0  0  0
    5.7758   -2.5122    0.0000 C   0  0  0  0  0  0  0  0  0  0  0  0
    3.5346   -5.4975    0.0000 C   0  0  0  0  0  0  0  0  0  0  0  0
    1.4289   -0.4125    0.0000 C   0  0  2  0  0  0  0  0  0  0  0  0
    4.2868   -1.2375    0.0000 C   0  0  0  0  0  0  0  0  0  0  0  0
    3.2616   -6.2760    0.0000 C   0  0  0  0  0  0  0  0  0  0  0  0
    2.1434    0.0000    0.0000 C   0  0  0  0  0  0  0  0  0  0  0  0
    0.7145    0.0000    0.0000 C   0  0  2  0  0  0  0  0  0  0  0  0
    3.5723   -1.6500    0.0000 O   0  0  0  0  0  0  0  0  0  0  0  0
    4.2868   -0.4125    0.0000 C   0  0  0  0  0  0  0  0  0  0  0  0
    2.8579   -0.4125    0.0000 C   0  0  0  0  0  0  0  0  0  0  0  0
    0.7145    0.8250    0.0000 O   0  0  0  0  0  0  0  0  0  0  0  0
    0.0000   -0.4125    0.0000 C   0  0  0  0  0  0  0  0  0  0  0  0
    3.5723    0.0000    0.0000 C   0  0  0  0  0  0  0  0  0  0  0  0
  1  2  2  0  0  0  0 
  2  3  1  0  0  0  0 
  2  4  1  0  0  0  0 
  3  5  1  0  0  0  0 
  4  6  2  0  0  0  0 
  7  5  1  1  0  0  0 
  6  8  1  0  0  0  0 
  6  9  1  0  0  0  0 
 10  7  1  0  0  0  0 
 11  7  1  0  0  0  0 
  7 12  1  0  0  0  0 
  8 13  1  0  0  0  0 
 14 10  1  0  0  0  0 
 15 10  1  0  0  0  0 
 10 16  1  6  0  0  0 
 11 17  1  6  0  0  0 
 11 18  1  0  0  0  0 
 12 19  1  0  0  0  0 
 13 20  1  0  0  0  0 
 14 21  1  6  0  0  0 
 22 14  1  0  0  0  0 
 14 23  1  0  0  0  0 
 15 24  1  6  0  0  0 
 15 25  1  0  0  0  0 
 18 26  2  0  0  0  0 
 27 20  1  1  0  0  0 
 24 28  1  0  0  0  0 
 26 29  1  0  0  0  0 
 27 30  1  0  0  0  0 
 31 27  1  0  0  0  0 
 28 32  2  0  0  0  0 
 28 33  1  0  0  0  0 
 30 34  2  0  0  0  0 
 31 35  1  1  0  0  0 
 31 36  1  0  0  0  0 
 33 37  2  0  0  0  0 
 22 17  1  1  0  0  0 
 19 26  1  0  0  0  0 
 21 23  1  0  0  0  0 
 22 25  1  0  0  0  0 
 34 37  1  0  0  0  0 
M  END
> <ID>
CHEBI:214188

> <NAME>
Roridin E

$$$$

CDK     1030232201

 29 33  0  0  0  0  0  0  0  0999 V2000
    8.5274    0.1503    0.0000 O   0  0  0  0  0  0  0  0  0  0  0  0
    7.7737   -0.1852    0.0000 C   0  0  0  0  0  0  0  0  0  0  0  0
    7.1062    0.2997    0.0000 C   0  0  0  0  0  0  0  0  0  0  0  0
    7.6875   -1.0057    0.0000 C   0  0  0  0  0  0  0  0  0  0  0  0
    6.3526   -0.0359    0.0000 C   0  0  0  0  0  0  0  0  0  0  0  0
    7.1925    1.1202    0.0000 C   0  0  0  0  0  0  0  0  0  0  0  0
    6.9338   -1.3413    0.0000 C   0  0  0  0  0  0  0  0  0  0  0  0
    8.3549   -1.4906    0.0000 C   0  0  0  0  0  0  0  0  0  0  0  0
    6.2663   -0.8564    0.0000 O   0  0  0  0  0  0  0  0  0  0  0  0
    5.6852    0.4491    0.0000 C   0  0  0  0  0  0  0  0  0  0  0  0
    7.9462    1.4557    0.0000 O   0  0  0  0  0  0  0  0  0  0  0  0
    6.5250    1.6051    0.0000 C   0  0  0  0  0  0  0  0  0  0  0  0
    6.8475   -2.1618    0.0000 C   0  0  0  0  0  0  0  0  0  0  0  0
    9.1086   -1.1551    0.0000 O   0  0  0  0  0  0  0  0  0  0  0  0
    8.2687   -2.3111    0.0000 C   0  0  0  0  0  0  0  0  0  0  0  0
    5.7714    1.2695    0.0000 C   0  0  0  0  0  0  0  0  0  0  0  0
    4.8781    0.2775    0.0000 C   0  0  1  0  0  0  0  0  0  0  0  0
    8.0324    2.2763    0.0000 C   0  0  0  0  0  0  0  0  0  0  0  0
    7.5149   -2.6467    0.0000 C   0  0  0  0  0  0  0  0  0  0  0  0
    5.0176    1.6051    0.0000 O   0  0  0  0  0  0  0  0  0  0  0  0
    4.4656    0.9920    0.0000 C   0  0  1  0  0  0  0  0  0  0  0  0
    4.3261   -0.3355    0.0000 C   0  0  0  0  0  0  0  0  0  0  0  0
    3.6587    0.8205    0.0000 O   0  0  0  0  0  0  0  0  0  0  0  0
    3.5724    0.0000    0.0000 C   0  0  1  0  0  0  0  0  0  0  0  0
    2.8579   -0.4125    0.0000 O   0  0  0  0  0  0  0  0  0  0  0  0
    2.1435    0.0000    0.0000 C   0  0  0  0  0  0  0  0  0  0  0  0
    1.4290   -0.4125    0.0000 C   0  0  0  0  0  0  0  0  0  0  0  0
    0.7145    0.0000    0.0000 C   0  0  0  0  0  0  0  0  0  0  0  0
    0.0000   -0.4125    0.0000 C   0  0  0  0  0  0  0  0  0  0  0  0
  1  2  2  0  0  0  0 
  2  3  1  0  0  0  0 
  2  4  1  0  0  0  0 
  3  5  2  0  0  0  0 
  3  6  1  0  0  0  0 
  4  7  2  0  0  0  0 
  4  8  1  0  0  0  0 
  5  9  1  0  0  0  0 
  5 10  1  0  0  0  0 
  6 11  1  0  0  0  0 
  6 12  2  0  0  0  0 
  7 13  1  0  0  0  0 
  8 14  1  0  0  0  0 
  8 15  2  0  0  0  0 
 10 16  2  0  0  0  0 
 17 10  1  0  0  0  0 
 11 18  1  0  0  0  0 
 13 19  2  0  0  0  0 
 16 20  1  0  0  0  0 
 21 17  1  0  0  0  0 
 17 22  1  6  0  0  0 
 21 23  1  6  0  0  0 
 24 22  1  0  0  0  0 
 24 25  1  6  0  0  0 
 25 26  1  0  0  0  0 
 26 27  1  0  0  0  0 
 27 28  1  0  0  0  0 
 28 29  1  0  0  0  0 
  7  9  1  0  0  0  0 
 12 16  1  0  0  0  0 
 15 19  1  0  0  0  0 
 20 21  1  0  0  0  0 
 23 24  1  0  0  0  0 
M  END
> <ID>
CHEBI:214495

> <NAME>
Sterigmatocystin B

$$$$

CDK     1030232201

 29 33  0  0  0  0  0  0  0  0999 V2000
    8.5274    0.1503    0.0000 O   0  0  0  0  0  0  0  0  0  0  0  0
    7.7737   -0.1852    0.0000 C   0  0  0  0  0  0  0  0  0  0  0  0
    7.1062    0.2997    0.0000 C   0  0  0  0  0  0  0  0  0  0  0  0
    7.6875   -1.0057    0.0000 C   0  0  0  0  0  0  0  0  0  0  0  0
    6.3526   -0.0359    0.0000 C   0  0  0  0  0  0  0  0  0  0  0  0
    7.1925    1.1202    0.0000 C   0  0  0  0  0  0  0  0  0  0  0  0
    6.9338   -1.3413    0.0000 C   0  0  0  0  0  0  0  0  0  0  0  0
    8.3549   -1.4906    0.0000 C   0  0  0  0  0  0  0  0  0  0  0  0
    6.2663   -0.8564    0.0000 O   0  0  0  0  0  0  0  0  0  0  0  0
    5.6852    0.4491    0.0000 C   0  0  0  0  0  0  0  0  0  0  0  0
    7.9462    1.4557    0.0000 O   0  0  0  0  0  0  0  0  0  0  0  0
    6.5250    1.6051    0.0000 C   0  0  0  0  0  0  0  0  0  0  0  0
    6.8475   -2.1618    0.0000 C   0  0  0  0  0  0  0  0  0  0  0  0
    9.1086   -1.1551    0.0000 O   0  0  0  0  0  0  0  0  0  0  0  0
    8.2687   -2.3111    0.0000 C   0  0  0  0  0  0  0  0  0  0  0  0
    5.7714    1.2695    0.0000 C   0  0  0  0  0  0  0  0  0  0  0  0
    4.8781    0.2775    0.0000 C   0  0  1  0  0  0  0  0  0  0  0  0
    8.0324    2.2763    0.0000 C   0  0  0  0  0  0  0  0  0  0  0  0
    7.5149   -2.6467    0.0000 C   0  0  0  0  0  0  0  0  0  0  0  0
    5.0176    1.6051    0.0000 O   0  0  0  0  0  0  0  0  0  0  0  0
    4.4656    0.9920    0.0000 C   0  0  1  0  0  0  0  0  0  0  0  0
    4.3261   -0.3355    0.0000 C   0  0  0  0  0  0  0  0  0  0  0  0
    3.6587    0.8205    0.0000 O   0  0  0  0  0  0  0  0  0  0  0  0
    3.5724    0.0000    0.0000 C   0  0  2  0  0  0  0  0  0  0  0  0
    2.8579   -0.4125    0.0000 O   0  0  0  0  0  0  0  0  0  0  0  0
    2.1435    0.0000    0.0000 C   0  0  0  0  0  0  0  0  0  0  0  0
    1.4290   -0.4125    0.0000 C   0  0  0  0  0  0  0  0  0  0  0  0
    0.7145    0.0000    0.0000 C   0  0  0  0  0  0  0  0  0  0  0  0
    0.0000   -0.4125    0.0000 C   0  0  0  0  0  0  0  0  0  0  0  0
  1  2  2  0  0  0  0 
  2  3  1  0  0  0  0 
  2  4  1  0  0  0  0 
  3  5  2  0  0  0  0 
  3  6  1  0  0  0  0 
  4  7  2  0  0  0  0 
  4  8  1  0  0  0  0 
  5  9  1  0  0  0  0 
  5 10  1  0  0  0  0 
  6 11  1  0  0  0  0 
  6 12  2  0  0  0  0 
  7 13  1  0  0  0  0 
  8 14  1  0  0  0  0 
  8 15  2  0  0  0  0 
 10 16  2  0  0  0  0 
 17 10  1  0  0  0  0 
 11 18  1  0  0  0  0 
 13 19  2  0  0  0  0 
 16 20  1  0  0  0  0 
 21 17  1  0  0  0  0 
 17 22  1  6  0  0  0 
 21 23  1  6  0  0  0 
 24 22  1  0  0  0  0 
 24 25  1  1  0  0  0 
 25 26  1  0  0  0  0 
 26 27  1  0  0  0  0 
 27 28  1  0  0  0  0 
 28 29  1  0  0  0  0 
  7  9  1  0  0  0  0 
 12 16  1  0  0  0  0 
 15 19  1  0  0  0  0 
 20 21  1  0  0  0  0 
 23 24  1  0  0  0  0 
M  END
> <ID>
CHEBI:214501

> <NAME>
Sterigmatocystin C

$$$$

CDK     1030232201

 36 42  0  0  0  0  0  0  0  0999 V2000
   -0.8277   -0.1653    0.0000 O   0  0  0  0  0  0  0  0  0  0  0  0
   -0.8209    0.6596    0.0000 C   0  0  0  0  0  0  0  0  0  0  0  0
   -0.1030    1.0662    0.0000 O   0  0  0  0  0  0  0  0  0  0  0  0
   -1.5319    1.0780    0.0000 C   0  0  0  0  0  0  0  0  0  0  0  0
    0.4028    0.7639    0.0000 C   0  0  1  0  0  0  0  0  0  0  0  0
   -2.2498    0.6715    0.0000 C   0  0  0  0  0  0  0  0  0  0  0  0
    0.7145    0.0000    0.0000 C   0  0  2  0  0  0  0  0  0  0  0  0
    1.0329    1.2963    0.0000 C   0  0  0  0  0  0  0  0  0  0  0  0
   -2.2566   -0.1535    0.0000 C   0  0  0  0  0  0  0  0  0  0  0  0
    1.3830   -0.9024    0.0000 C   0  0  1  0  0  0  0  0  0  0  0  0
    1.5372    0.0604    0.0000 C   0  0  0  0  0  0  0  0  0  0  0  0
    0.0000   -0.4125    0.0000 C   0  0  0  0  0  0  0  0  0  0  0  0
    1.7341    0.8616    0.0000 C   0  0  0  0  0  0  0  0  0  0  0  0
   -1.5456   -0.5719    0.0000 C   0  0  0  0  0  0  0  0  0  0  0  0
    2.2264   -0.7539    0.0000 C   0  0  0  0  0  0  0  0  0  0  0  0
    1.3949   -1.4358    0.0000 C   0  0  0  0  0  0  0  0  0  0  0  0
    1.1441   -1.7498    0.0000 C   0  0  0  0  0  0  0  0  0  0  0  0
    1.7102   -0.6947    0.0000 O   0  0  0  0  0  0  0  0  0  0  0  0
    2.2218   -0.2119    0.0000 C   0  0  0  0  0  0  0  0  0  0  0  0
    2.5123    0.0483    0.0000 O   0  0  0  0  0  0  0  0  0  0  0  0
   -1.6182   -1.4396    0.0000 C   0  0  0  0  0  0  0  0  0  0  0  0
    2.7486   -1.3731    0.0000 C   0  0  0  0  0  0  0  0  0  0  0  0
    0.5875   -1.8272    0.0000 O   0  0  0  0  0  0  0  0  0  0  0  0
    1.6571   -2.2954    0.0000 C   0  0  0  0  0  0  0  0  0  0  0  0
   -2.2585   -1.9600    0.0000 O   0  0  0  0  0  0  0  0  0  0  0  0
   -0.8475   -1.7340    0.0000 C   0  0  0  0  0  0  0  0  0  0  0  0
    2.4691   -2.1493    0.0000 C   0  0  0  0  0  0  0  0  0  0  0  0
    0.5806   -2.6521    0.0000 C   0  0  0  0  0  0  0  0  0  0  0  0
   -2.1280   -2.7746    0.0000 C   0  0  0  0  0  0  0  0  0  0  0  0
   -0.2072   -1.2137    0.0000 O   0  0  0  0  0  0  0  0  0  0  0  0
   -0.7170   -2.5486    0.0000 C   0  0  1  0  0  0  0  0  0  0  0  0
    3.0015   -2.7794    0.0000 C   0  0  0  0  0  0  0  0  0  0  0  0
    1.3095   -3.0386    0.0000 O   0  0  0  0  0  0  0  0  0  0  0  0
   -0.1968   -3.1889    0.0000 C   0  0  2  0  0  0  0  0  0  0  0  0
   -1.3573   -3.0689    0.0000 C   0  0  0  0  0  0  0  0  0  0  0  0
    0.0976   -2.4182    0.0000 O   0  0  0  0  0  0  0  0  0  0  0  0
  1  2  2  0  0  0  0 
  2  3  1  0  0  0  0 
  2  4  1  0  0  0  0 
  5  3  1  6  0  0  0 
  4  6  2  0  0  0  0 
  7  5  1  0  0  0  0 
  5  8  1  0  0  0  0 
  6  9  1  0  0  0  0 
 10  7  1  0  0  0  0 
  7 11  1  0  0  0  0 
  7 12  1  6  0  0  0 
  8 13  1  0  0  0  0 
  9 14  1  0  0  0  0 
 10 15  1  0  0  0  0 
 10 16  1  1  0  0  0 
 10 17  1  0  0  0  0 
 11 18  1  0  0  0  0 
 11 19  1  0  0  0  0 
 13 20  1  0  0  0  0 
 14 21  2  0  0  0  0 
 15 22  1  0  0  0  0 
 16 23  1  0  0  0  0 
 17 24  1  0  0  0  0 
 21 25  1  0  0  0  0 
 21 26  1  0  0  0  0 
 22 27  2  0  0  0  0 
 23 28  1  0  0  0  0 
 25 29  1  0  0  0  0 
 26 30  1  0  0  0  0 
 31 26  1  0  0  0  0 
 27 32  1  0  0  0  0 
 28 33  2  0  0  0  0 
 34 28  1  0  0  0  0 
 29 35  1  0  0  0  0 
 31 36  1  6  0  0  0 
 11 13  1  0  0  0  0 
 15 20  1  0  0  0  0 
 18 19  1  0  0  0  0 
 24 27  1  0  0  0  0 
 31 34  1  0  0  0  0 
 31 35  1  0  0  0  0 
 34 36  1  1  0  0  0 
M  END
> <ID>
CHEBI:214574

> <NAME>
Myrotoxin A

$$$$

CDK     1030232201

 33 36  0  0  0  0  0  0  0  0999 V2000
    5.0014    0.8250    0.0000 O   0  0  0  0  0  0  0  0  0  0  0  0
    5.0014    0.0000    0.0000 C   0  0  0  0  0  0  0  0  0  0  0  0
    5.7159   -0.4125    0.0000 O   0  0  0  0  0  0  0  0  0  0  0  0
    4.2870   -0.4125    0.0000 C   0  0  0  0  0  0  0  0  0  0  0  0
    6.4304    0.0000    0.0000 C   0  0  1  0  0  0  0  0  0  0  0  0
    3.5724    0.0000    0.0000 C   0  0  0  0  0  0  0  0  0  0  0  0
    7.1841   -0.3355    0.0000 C   0  0  2  0  0  0  0  0  0  0  0  0
    6.5167    0.8205    0.0000 C   0  0  0  0  0  0  0  0  0  0  0  0
    3.5724    0.8250    0.0000 C   0  0  0  0  0  0  0  0  0  0  0  0
    8.2912   -0.5241    0.0000 C   0  0  2  0  0  0  0  0  0  0  0  0
    7.7361    0.2775    0.0000 C   0  0  2  0  0  0  0  0  0  0  0  0
    6.9539   -1.1278    0.0000 C   0  0  0  0  0  0  0  0  0  0  0  0
    7.3236    0.9920    0.0000 C   0  0  2  0  0  0  0  0  0  0  0  0
    2.8579    1.2375    0.0000 C   0  0  0  0  0  0  0  0  0  0  0  0
    8.7972    0.1668    0.0000 C   0  0  2  0  0  0  0  0  0  0  0  0
    8.6327   -1.2535    0.0000 C   0  0  0  0  0  0  0  0  0  0  0  0
    7.7984   -1.1570    0.0000 C   0  0  0  0  0  0  0  0  0  0  0  0
    8.3835   -0.1477    0.0000 O   0  0  0  0  0  0  0  0  0  0  0  0
    8.4187    0.5548    0.0000 C   0  0  0  0  0  0  0  0  0  0  0  0
    8.4483    0.9437    0.0000 O   0  0  0  0  0  0  0  0  0  0  0  0
    2.8579    2.0625    0.0000 C   0  0  2  0  0  0  0  0  0  0  0  0
    9.6026    0.0813    0.0000 C   0  0  0  0  0  0  0  0  0  0  0  0
    9.4532   -1.3397    0.0000 C   0  0  0  0  0  0  0  0  0  0  0  0
    8.1181   -1.9176    0.0000 O   0  0  0  0  0  0  0  0  0  0  0  0
    3.5724    2.4751    0.0000 O   0  0  0  0  0  0  0  0  0  0  0  0
    2.1435    2.4751    0.0000 C   0  0  2  0  0  0  0  0  0  0  0  0
    9.9382   -0.6723    0.0000 C   0  0  0  0  0  0  0  0  0  0  0  0
    7.6194   -2.5747    0.0000 C   0  0  0  0  0  0  0  0  0  0  0  0
    1.4290    2.0625    0.0000 O   0  0  0  0  0  0  0  0  0  0  0  0
    2.1435    3.3001    0.0000 C   0  0  0  0  0  0  0  0  0  0  0  0
   10.7586   -0.7585    0.0000 C   0  0  0  0  0  0  0  0  0  0  0  0
    6.8008   -2.4713    0.0000 O   0  0  0  0  0  0  0  0  0  0  0  0
    7.9391   -3.3353    0.0000 C   0  0  0  0  0  0  0  0  0  0  0  0
  1  2  2  0  0  0  0 
  2  3  1  0  0  0  0 
  2  4  1  0  0  0  0 
  5  3  1  6  0  0  0 
  4  6  2  0  0  0  0 
  7  5  1  0  0  0  0 
  5  8  1  0  0  0  0 
  6  9  1  0  0  0  0 
 10  7  1  0  0  0  0 
 11  7  1  0  0  0  0 
  7 12  1  6  0  0  0 
 13  8  1  0  0  0  0 
  9 14  2  0  0  0  0 
 15 10  1  0  0  0  0 
 10 16  1  0  0  0  0 
 10 17  1  1  0  0  0 
 11 18  1  6  0  0  0 
 11 19  1  0  0  0  0 
 13 20  1  1  0  0  0 
 21 14  1  0  0  0  0 
 15 22  1  0  0  0  0 
 16 23  1  0  0  0  0 
 17 24  1  0  0  0  0 
 21 25  1  1  0  0  0 
 26 21  1  0  0  0  0 
 22 27  2  0  0  0  0 
 24 28  1  0  0  0  0 
 26 29  1  6  0  0  0 
 26 30  1  0  0  0  0 
 27 31  1  0  0  0  0 
 28 32  2  0  0  0  0 
 28 33  1  0  0  0  0 
 11 13  1  0  0  0  0 
 15 20  1  6  0  0  0 
 18 19  1  0  0  0  0 
 23 27  1  0  0  0  0 
M  END
> <ID>
CHEBI:214807

> <NAME>
15-acetyltrichoverrol B

$$$$

CDK     1030232201

 26 30  0  0  0  0  0  0  0  0999 V2000
    4.0366   -4.6285    0.0000 O   0  0  0  0  0  0  0  0  0  0  0  0
    3.3692   -4.1435    0.0000 C   0  0  0  0  0  0  0  0  0  0  0  0
    3.4554   -3.3231    0.0000 C   0  0  0  0  0  0  0  0  0  0  0  0
    2.6155   -4.4791    0.0000 C   0  0  0  0  0  0  0  0  0  0  0  0
    2.7880   -2.8381    0.0000 C   0  0  0  0  0  0  0  0  0  0  0  0
    4.2091   -2.9875    0.0000 C   0  0  0  0  0  0  0  0  0  0  0  0
    1.9481   -3.9942    0.0000 C   0  0  0  0  0  0  0  0  0  0  0  0
    2.5292   -5.2996    0.0000 C   0  0  0  0  0  0  0  0  0  0  0  0
    2.0343   -3.1737    0.0000 O   0  0  0  0  0  0  0  0  0  0  0  0
    2.8743   -2.0177    0.0000 C   0  0  0  0  0  0  0  0  0  0  0  0
    4.8766   -3.4724    0.0000 O   0  0  0  0  0  0  0  0  0  0  0  0
    4.2953   -2.1670    0.0000 C   0  0  0  0  0  0  0  0  0  0  0  0
    1.1944   -4.3298    0.0000 C   0  0  0  0  0  0  0  0  0  0  0  0
    3.1968   -5.7846    0.0000 O   0  0  0  0  0  0  0  0  0  0  0  0
    1.7756   -5.6352    0.0000 C   0  0  0  0  0  0  0  0  0  0  0  0
    3.6279   -1.6820    0.0000 C   0  0  0  0  0  0  0  0  0  0  0  0
    2.3222   -1.4045    0.0000 C   0  0  1  0  0  0  0  0  0  0  0  0
    5.6303   -3.1369    0.0000 C   0  0  0  0  0  0  0  0  0  0  0  0
    1.1082   -5.1502    0.0000 C   0  0  0  0  0  0  0  0  0  0  0  0
    3.5417   -0.8616    0.0000 O   0  0  0  0  0  0  0  0  0  0  0  0
    2.7347   -0.6900    0.0000 C   0  0  1  0  0  0  0  0  0  0  0  0
    1.5152   -1.2330    0.0000 C   0  0  0  0  0  0  0  0  0  0  0  0
    2.1827   -0.0770    0.0000 O   0  0  0  0  0  0  0  0  0  0  0  0
    1.4290   -0.4125    0.0000 C   0  0  2  0  0  0  0  0  0  0  0  0
    0.7145    0.0000    0.0000 O   0  0  0  0  0  0  0  0  0  0  0  0
    0.0000   -0.4125    0.0000 C   0  0  0  0  0  0  0  0  0  0  0  0
  1  2  2  0  0  0  0 
  2  3  1  0  0  0  0 
  2  4  1  0  0  0  0 
  3  5  2  0  0  0  0 
  3  6  1  0  0  0  0 
  4  7  2  0  0  0  0 
  4  8  1  0  0  0  0 
  5  9  1  0  0  0  0 
  5 10  1  0  0  0  0 
  6 11  1  0  0  0  0 
  6 12  2  0  0  0  0 
  7 13  1  0  0  0  0 
  8 14  1  0  0  0  0 
  8 15  2  0  0  0  0 
 10 16  2  0  0  0  0 
 17 10  1  0  0  0  0 
 11 18  1  0  0  0  0 
 13 19  2  0  0  0  0 
 16 20  1  0  0  0  0 
 21 17  1  0  0  0  0 
 17 22  1  6  0  0  0 
 21 23  1  6  0  0  0 
 24 22  1  0  0  0  0 
 24 25  1  1  0  0  0 
 25 26  1  0  0  0  0 
  7  9  1  0  0  0  0 
 12 16  1  0  0  0  0 
 15 19  1  0  0  0  0 
 20 21  1  0  0  0  0 
 23 24  1  0  0  0  0 
M  END
> <ID>
CHEBI:215205

> <NAME>
Oxisterigmatocystin I

$$$$

CDK     1030232201

 38 41  0  0  0  0  0  0  0  0999 V2000
    6.8008   -2.4713    0.0000 O   0  0  0  0  0  0  0  0  0  0  0  0
    7.6194   -2.5747    0.0000 C   0  0  0  0  0  0  0  0  0  0  0  0
    8.1181   -1.9176    0.0000 O   0  0  0  0  0  0  0  0  0  0  0  0
    7.9391   -3.3353    0.0000 C   0  0  0  0  0  0  0  0  0  0  0  0
    7.7984   -1.1570    0.0000 C   0  0  0  0  0  0  0  0  0  0  0  0
    7.4403   -3.9924    0.0000 C   0  0  0  0  0  0  0  0  0  0  0  0
    8.2912   -0.5241    0.0000 C   0  0  1  0  0  0  0  0  0  0  0  0
    7.7600   -4.7530    0.0000 C   0  0  0  0  0  0  0  0  0  0  0  0
    6.6218   -3.8891    0.0000 C   0  0  0  0  0  0  0  0  0  0  0  0
    7.1841   -0.3355    0.0000 C   0  0  2  0  0  0  0  0  0  0  0  0
    8.7972    0.1668    0.0000 C   0  0  2  0  0  0  0  0  0  0  0  0
    8.6327   -1.2535    0.0000 C   0  0  0  0  0  0  0  0  0  0  0  0
    7.2612   -5.4101    0.0000 C   0  0  0  0  0  0  0  0  0  0  0  0
    7.7361    0.2775    0.0000 C   0  0  0  0  0  0  0  0  0  0  0  0
    6.4304    0.0000    0.0000 C   0  0  2  0  0  0  0  0  0  0  0  0
    6.9539   -1.1278    0.0000 C   0  0  0  0  0  0  0  0  0  0  0  0
    8.4483    0.9437    0.0000 O   0  0  0  0  0  0  0  0  0  0  0  0
    9.6026    0.0813    0.0000 C   0  0  0  0  0  0  0  0  0  0  0  0
    9.4532   -1.3397    0.0000 C   0  0  0  0  0  0  0  0  0  0  0  0
    7.5810   -6.1707    0.0000 O   0  0  0  0  0  0  0  0  0  0  0  0
    8.3835   -0.1477    0.0000 O   0  0  0  0  0  0  0  0  0  0  0  0
    7.3236    0.9920    0.0000 C   0  0  2  0  0  0  0  0  0  0  0  0
    8.4187    0.5548    0.0000 C   0  0  0  0  0  0  0  0  0  0  0  0
    5.7159   -0.4125    0.0000 O   0  0  0  0  0  0  0  0  0  0  0  0
    6.5167    0.8205    0.0000 C   0  0  0  0  0  0  0  0  0  0  0  0
    9.9382   -0.6723    0.0000 C   0  0  0  0  0  0  0  0  0  0  0  0
    5.0014    0.0000    0.0000 C   0  0  0  0  0  0  0  0  0  0  0  0
   10.7586   -0.7585    0.0000 C   0  0  0  0  0  0  0  0  0  0  0  0
    5.0014    0.8250    0.0000 O   0  0  0  0  0  0  0  0  0  0  0  0
    4.2870   -0.4125    0.0000 C   0  0  0  0  0  0  0  0  0  0  0  0
    3.5724    0.0000    0.0000 C   0  0  0  0  0  0  0  0  0  0  0  0
    3.5724    0.8250    0.0000 C   0  0  0  0  0  0  0  0  0  0  0  0
    2.8579    1.2375    0.0000 C   0  0  0  0  0  0  0  0  0  0  0  0
    2.8579    2.0625    0.0000 C   0  0  2  0  0  0  0  0  0  0  0  0
    3.5724    2.4751    0.0000 O   0  0  0  0  0  0  0  0  0  0  0  0
    2.1435    2.4751    0.0000 C   0  0  1  0  0  0  0  0  0  0  0  0
    1.4290    2.0625    0.0000 O   0  0  0  0  0  0  0  0  0  0  0  0
    2.1435    3.3001    0.0000 C   0  0  0  0  0  0  0  0  0  0  0  0
  1  2  2  0  0  0  0 
  2  3  1  0  0  0  0 
  2  4  1  0  0  0  0 
  3  5  1  0  0  0  0 
  4  6  2  0  0  0  0 
  7  5  1  1  0  0  0 
  6  8  1  0  0  0  0 
  6  9  1  0  0  0  0 
 10  7  1  0  0  0  0 
 11  7  1  0  0  0  0 
  7 12  1  0  0  0  0 
  8 13  1  0  0  0  0 
 10 14  1  0  0  0  0 
 15 10  1  0  0  0  0 
 10 16  1  6  0  0  0 
 11 17  1  6  0  0  0 
 11 18  1  0  0  0  0 
 12 19  1  0  0  0  0 
 13 20  1  0  0  0  0 
 14 21  1  0  0  0  0 
 22 14  1  0  0  0  0 
 14 23  1  0  0  0  0 
 15 24  1  6  0  0  0 
 15 25  1  0  0  0  0 
 18 26  2  0  0  0  0 
 24 27  1  0  0  0  0 
 26 28  1  0  0  0  0 
 27 29  2  0  0  0  0 
 27 30  1  0  0  0  0 
 30 31  2  0  0  0  0 
 31 32  1  0  0  0  0 
 32 33  2  0  0  0  0 
 34 33  1  0  0  0  0 
 34 35  1  1  0  0  0 
 36 34  1  0  0  0  0 
 36 37  1  1  0  0  0 
 36 38  1  0  0  0  0 
 22 17  1  1  0  0  0 
 19 26  1  0  0  0  0 
 21 23  1  0  0  0  0 
 22 25  1  0  0  0  0 
M  END
> <ID>
CHEBI:215464

> <NAME>
Trichoverrin A

$$$$

CDK     1030232201

 29 32  0  0  0  0  0  0  0  0999 V2000
    5.0014    0.8250    0.0000 O   0  0  0  0  0  0  0  0  0  0  0  0
    5.0014    0.0000    0.0000 C   0  0  0  0  0  0  0  0  0  0  0  0
    5.7159   -0.4125    0.0000 O   0  0  0  0  0  0  0  0  0  0  0  0
    4.2870   -0.4125    0.0000 C   0  0  0  0  0  0  0  0  0  0  0  0
    6.4304    0.0000    0.0000 C   0  0  1  0  0  0  0  0  0  0  0  0
    3.5724    0.0000    0.0000 C   0  0  0  0  0  0  0  0  0  0  0  0
    7.1841   -0.3355    0.0000 C   0  0  2  0  0  0  0  0  0  0  0  0
    6.5167    0.8205    0.0000 C   0  0  0  0  0  0  0  0  0  0  0  0
    3.5724    0.8250    0.0000 C   0  0  0  0  0  0  0  0  0  0  0  0
    8.2912   -0.5241    0.0000 C   0  0  2  0  0  0  0  0  0  0  0  0
    7.7361    0.2775    0.0000 C   0  0  0  0  0  0  0  0  0  0  0  0
    6.9539   -1.1278    0.0000 C   0  0  0  0  0  0  0  0  0  0  0  0
    7.3236    0.9920    0.0000 C   0  0  2  0  0  0  0  0  0  0  0  0
    2.8579    1.2375    0.0000 C   0  0  0  0  0  0  0  0  0  0  0  0
    8.7972    0.1668    0.0000 C   0  0  2  0  0  0  0  0  0  0  0  0
    8.6327   -1.2535    0.0000 C   0  0  0  0  0  0  0  0  0  0  0  0
    7.7984   -1.1570    0.0000 C   0  0  0  0  0  0  0  0  0  0  0  0
    8.3835   -0.1477    0.0000 O   0  0  0  0  0  0  0  0  0  0  0  0
    8.4187    0.5548    0.0000 C   0  0  0  0  0  0  0  0  0  0  0  0
    8.4483    0.9437    0.0000 O   0  0  0  0  0  0  0  0  0  0  0  0
    2.8579    2.0625    0.0000 C   0  0  2  0  0  0  0  0  0  0  0  0
    9.6026    0.0813    0.0000 C   0  0  0  0  0  0  0  0  0  0  0  0
    9.4532   -1.3397    0.0000 C   0  0  0  0  0  0  0  0  0  0  0  0
    3.5724    2.4751    0.0000 O   0  0  0  0  0  0  0  0  0  0  0  0
    2.1435    2.4751    0.0000 C   0  0  2  0  0  0  0  0  0  0  0  0
    9.9382   -0.6723    0.0000 C   0  0  0  0  0  0  0  0  0  0  0  0
    1.4290    2.0625    0.0000 O   0  0  0  0  0  0  0  0  0  0  0  0
    2.1435    3.3001    0.0000 C   0  0  0  0  0  0  0  0  0  0  0  0
   10.7586   -0.7585    0.0000 C   0  0  0  0  0  0  0  0  0  0  0  0
  1  2  2  0  0  0  0 
  2  3  1  0  0  0  0 
  2  4  1  0  0  0  0 
  5  3  1  6  0  0  0 
  4  6  2  0  0  0  0 
  7  5  1  0  0  0  0 
  5  8  1  0  0  0  0 
  6  9  1  0  0  0  0 
 10  7  1  0  0  0  0 
  7 11  1  0  0  0  0 
  7 12  1  6  0  0  0 
 13  8  1  0  0  0  0 
  9 14  2  0  0  0  0 
 15 10  1  0  0  0  0 
 10 16  1  0  0  0  0 
 10 17  1  1  0  0  0 
 11 18  1  0  0  0  0 
 11 19  1  0  0  0  0 
 13 20  1  1  0  0  0 
 21 14  1  0  0  0  0 
 15 22  1  0  0  0  0 
 16 23  1  0  0  0  0 
 21 24  1  1  0  0  0 
 25 21  1  0  0  0  0 
 22 26  2  0  0  0  0 
 25 27  1  6  0  0  0 
 25 28  1  0  0  0  0 
 26 29  1  0  0  0  0 
 11 13  1  0  0  0  0 
 15 20  1  6  0  0  0 
 18 19  1  0  0  0  0 
 23 26  1  0  0  0  0 
M  END
> <ID>
CHEBI:216288

> <NAME>
Trichodermadienediol B

$$$$

CDK     1030232201

 37 41  0  0  0  0  0  0  0  0999 V2000
    2.2247    0.8532    0.0000 O   0  0  0  0  0  0  0  0  0  0  0  0
    3.0354    0.7004    0.0000 C   0  0  0  0  0  0  0  0  0  0  0  0
    3.3085   -0.0781    0.0000 O   0  0  0  0  0  0  0  0  0  0  0  0
    3.5731    1.3261    0.0000 C   0  0  0  0  0  0  0  0  0  0  0  0
    2.6813   -0.7199    0.0000 C   0  0  0  0  0  0  0  0  0  0  0  0
    4.3839    1.1733    0.0000 C   0  0  0  0  0  0  0  0  0  0  0  0
    2.8732   -1.2178    0.0000 C   0  0  1  0  0  0  0  0  0  0  0  0
    4.9216    1.7990    0.0000 C   0  0  0  0  0  0  0  0  0  0  0  0
    4.6569    0.3948    0.0000 C   0  0  0  0  0  0  0  0  0  0  0  0
    3.8079   -1.8403    0.0000 C   0  0  2  0  0  0  0  0  0  0  0  0
    2.1147   -1.6313    0.0000 C   0  0  2  0  0  0  0  0  0  0  0  0
    2.8109   -0.3395    0.0000 C   0  0  0  0  0  0  0  0  0  0  0  0
    5.7323    1.6462    0.0000 C   0  0  0  0  0  0  0  0  0  0  0  0
    3.0542   -2.1759    0.0000 C   0  0  1  0  0  0  0  0  0  0  0  0
    4.3599   -2.4534    0.0000 C   0  0  2  0  0  0  0  0  0  0  0  0
    4.3404   -1.2101    0.0000 C   0  0  0  0  0  0  0  0  0  0  0  0
    2.1364   -2.4994    0.0000 O   0  0  0  0  0  0  0  0  0  0  0  0
    1.4290   -1.2375    0.0000 C   0  0  0  0  0  0  0  0  0  0  0  0
    2.1434    0.0000    0.0000 C   0  0  0  0  0  0  0  0  0  0  0  0
    6.0053    0.8677    0.0000 O   0  0  0  0  0  0  0  0  0  0  0  0
    2.6358   -1.5241    0.0000 O   0  0  0  0  0  0  0  0  0  0  0  0
    3.1405   -2.9964    0.0000 C   0  0  2  0  0  0  0  0  0  0  0  0
    2.2432   -2.1272    0.0000 C   0  0  0  0  0  0  0  0  0  0  0  0
    4.9383   -2.5665    0.0000 O   0  0  0  0  0  0  0  0  0  0  0  0
    3.9475   -3.1679    0.0000 C   0  0  0  0  0  0  0  0  0  0  0  0
    1.4290   -0.4125    0.0000 C   0  0  0  0  0  0  0  0  0  0  0  0
    6.8160    0.7148    0.0000 C   0  0  0  0  0  0  0  0  0  0  0  0
    5.4760   -1.9408    0.0000 C   0  0  0  0  0  0  0  0  0  0  0  0
    0.7145    0.0000    0.0000 C   0  0  0  0  0  0  0  0  0  0  0  0
    7.3537    1.3405    0.0000 O   0  0  0  0  0  0  0  0  0  0  0  0
    7.0891   -0.0637    0.0000 C   0  0  0  0  0  0  0  0  0  0  0  0
    5.2029   -1.1623    0.0000 O   0  0  0  0  0  0  0  0  0  0  0  0
    6.2867   -2.0936    0.0000 C   0  0  0  0  0  0  0  0  0  0  0  0
    0.7145    0.8250    0.0000 O   0  0  0  0  0  0  0  0  0  0  0  0
    0.0000   -0.4125    0.0000 O   0  0  0  0  0  0  0  0  0  0  0  0
    6.5514   -0.6894    0.0000 C   0  0  0  0  0  0  0  0  0  0  0  0
    6.8244   -1.4679    0.0000 C   0  0  0  0  0  0  0  0  0  0  0  0
  1  2  2  0  0  0  0 
  2  3  1  0  0  0  0 
  2  4  1  0  0  0  0 
  3  5  1  0  0  0  0 
  4  6  2  0  0  0  0 
  7  5  1  1  0  0  0 
  6  8  1  0  0  0  0 
  6  9  1  0  0  0  0 
 10  7  1  0  0  0  0 
 11  7  1  0  0  0  0 
  7 12  1  0  0  0  0 
  8 13  1  0  0  0  0 
 14 10  1  0  0  0  0 
 15 10  1  0  0  0  0 
 10 16  1  6  0  0  0 
 11 17  1  6  0  0  0 
 11 18  1  0  0  0  0 
 12 19  1  0  0  0  0 
 13 20  1  0  0  0  0 
 14 21  1  6  0  0  0 
 22 14  1  0  0  0  0 
 14 23  1  0  0  0  0 
 15 24  1  6  0  0  0 
 15 25  1  0  0  0  0 
 18 26  2  0  0  0  0 
 20 27  1  0  0  0  0 
 24 28  1  0  0  0  0 
 26 29  1  0  0  0  0 
 27 30  2  0  0  0  0 
 27 31  1  0  0  0  0 
 28 32  2  0  0  0  0 
 28 33  1  0  0  0  0 
 29 34  2  0  0  0  0 
 29 35  1  0  0  0  0 
 31 36  2  0  0  0  0 
 33 37  2  0  0  0  0 
 22 17  1  1  0  0  0 
 19 26  1  0  0  0  0 
 21 23  1  0  0  0  0 
 22 25  1  0  0  0  0 
 36 37  1  0  0  0  0 
M  END
> <ID>
CHEBI:216492

> <NAME>
Verrucarin Y

$$$$

CDK     1030232202

 39 45  0  0  0  0  0  0  0  0999 V2000
    0.7026   -3.5389    0.0000 O   0  0  0  0  0  0  0  0  0  0  0  0
    0.2824   -2.8289    0.0000 C   0  0  0  0  0  0  0  0  0  0  0  0
    0.8968   -2.2783    0.0000 O   0  0  0  0  0  0  0  0  0  0  0  0
   -0.4959   -3.1025    0.0000 C   0  0  0  0  0  0  0  0  0  0  0  0
    1.3347   -1.5373    0.0000 C   0  0  0  0  0  0  0  0  0  0  0  0
   -1.3911   -2.9949    0.0000 C   0  0  0  0  0  0  0  0  0  0  0  0
    1.3830   -0.9024    0.0000 C   0  0  1  0  0  0  0  0  0  0  0  0
   -1.7151   -2.2362    0.0000 C   0  0  1  0  0  0  0  0  0  0  0  0
   -1.8863   -3.6548    0.0000 C   0  0  0  0  0  0  0  0  0  0  0  0
    0.7144    0.0000    0.0000 C   0  0  2  0  0  0  0  0  0  0  0  0
    2.2264   -0.7539    0.0000 C   0  0  2  0  0  0  0  0  0  0  0  0
    1.0049   -1.6678    0.0000 C   0  0  0  0  0  0  0  0  0  0  0  0
   -1.3679   -1.4877    0.0000 O   0  0  0  0  0  0  0  0  0  0  0  0
   -2.5341   -2.1373    0.0000 C   0  0  1  0  0  0  0  0  0  0  0  0
   -2.7053   -3.5560    0.0000 C   0  0  0  0  0  0  0  0  0  0  0  0
    1.5372    0.0604    0.0000 C   0  0  0  0  0  0  0  0  0  0  0  0
    0.4028    0.7639    0.0000 C   0  0  2  0  0  0  0  0  0  0  0  0
    0.0000   -0.4125    0.0000 C   0  0  0  0  0  0  0  0  0  0  0  0
    2.5123    0.0483    0.0000 O   0  0  0  0  0  0  0  0  0  0  0  0
    2.7486   -1.3730    0.0000 C   0  0  0  0  0  0  0  0  0  0  0  0
    1.6571   -2.2954    0.0000 C   0  0  0  0  0  0  0  0  0  0  0  0
   -1.9725   -0.9264    0.0000 C   0  0  0  0  0  0  0  0  0  0  0  0
   -3.0292   -2.7972    0.0000 O   0  0  0  0  0  0  0  0  0  0  0  0
   -2.9443   -1.3545    0.0000 C   0  0  0  0  0  0  0  0  0  0  0  0
   -2.5862   -1.3288    0.0000 C   0  0  0  0  0  0  0  0  0  0  0  0
    1.7101   -0.6946    0.0000 O   0  0  0  0  0  0  0  0  0  0  0  0
    1.7341    0.8615    0.0000 C   0  0  2  0  0  0  0  0  0  0  0  0
    2.2218   -0.2119    0.0000 C   0  0  0  0  0  0  0  0  0  0  0  0
   -0.2693    1.0388    0.0000 O   0  0  0  0  0  0  0  0  0  0  0  0
    1.0329    1.2963    0.0000 C   0  0  0  0  0  0  0  0  0  0  0  0
    2.4691   -2.1493    0.0000 C   0  0  0  0  0  0  0  0  0  0  0  0
   -1.8736   -0.1073    0.0000 O   0  0  0  0  0  0  0  0  0  0  0  0
   -2.5309   -0.5641    0.0000 C   0  0  0  0  0  0  0  0  0  0  0  0
   -3.4417   -0.9807    0.0000 O   0  0  0  0  0  0  0  0  0  0  0  0
   -1.0930    1.0839    0.0000 C   0  0  0  0  0  0  0  0  0  0  0  0
    3.0015   -2.7794    0.0000 C   0  0  0  0  0  0  0  0  0  0  0  0
   -2.4857    0.2597    0.0000 C   0  0  0  0  0  0  0  0  0  0  0  0
   -1.2095    1.9006    0.0000 O   0  0  0  0  0  0  0  0  0  0  0  0
   -1.8713    0.8103    0.0000 C   0  0  0  0  0  0  0  0  0  0  0  0
  1  2  2  0  0  0  0 
  2  3  1  0  0  0  0 
  2  4  1  0  0  0  0 
  3  5  1  0  0  0  0 
  4  6  2  0  0  0  0 
  7  5  1  1  0  0  0 
  8  6  1  0  0  0  0 
  6  9  1  0  0  0  0 
 10  7  1  0  0  0  0 
 11  7  1  0  0  0  0 
  7 12  1  0  0  0  0 
  8 13  1  6  0  0  0 
 14  8  1  0  0  0  0 
  9 15  1  0  0  0  0 
 10 16  1  0  0  0  0 
 17 10  1  0  0  0  0 
 10 18  1  6  0  0  0 
 11 19  1  6  0  0  0 
 11 20  1  0  0  0  0 
 12 21  1  0  0  0  0 
 13 22  1  0  0  0  0 
 14 23  1  6  0  0  0 
 14 24  1  0  0  0  0 
 14 25  1  0  0  0  0 
 16 26  1  0  0  0  0 
 27 16  1  0  0  0  0 
 16 28  1  0  0  0  0 
 17 29  1  6  0  0  0 
 17 30  1  0  0  0  0 
 20 31  2  0  0  0  0 
 22 32  1  0  0  0  0 
 24 33  2  0  0  0  0 
 25 34  1  0  0  0  0 
 29 35  1  0  0  0  0 
 31 36  1  0  0  0  0 
 33 37  1  0  0  0  0 
 35 38  2  0  0  0  0 
 35 39  1  0  0  0  0 
 15 23  1  0  0  0  0 
 27 19  1  1  0  0  0 
 21 31  1  0  0  0  0 
 22 25  1  0  0  0  0 
 26 28  1  0  0  0  0 
 27 30  1  0  0  0  0 
 37 39  2  0  0  0  0 
M  END
> <ID>
CHEBI:218044

> <NAME>
Roritoxin A

$$$$

CDK     1030232202

 39 43  0  0  0  0  0  0  0  0999 V2000
    2.2246    0.8532    0.0000 O   0  0  0  0  0  0  0  0  0  0  0  0
    3.0354    0.7004    0.0000 C   0  0  0  0  0  0  0  0  0  0  0  0
    3.3084   -0.0781    0.0000 O   0  0  0  0  0  0  0  0  0  0  0  0
    3.5731    1.3261    0.0000 C   0  0  0  0  0  0  0  0  0  0  0  0
    2.7245   -0.6764    0.0000 C   0  0  0  0  0  0  0  0  0  0  0  0
    4.3838    1.1733    0.0000 C   0  0  0  0  0  0  0  0  0  0  0  0
    2.8732   -1.2178    0.0000 C   0  0  1  0  0  0  0  0  0  0  0  0
    4.9215    1.7990    0.0000 C   0  0  0  0  0  0  0  0  0  0  0  0
    4.6569    0.3947    0.0000 C   0  0  0  0  0  0  0  0  0  0  0  0
    3.8079   -1.8403    0.0000 C   0  0  2  0  0  0  0  0  0  0  0  0
    2.1147   -1.6313    0.0000 C   0  0  2  0  0  0  0  0  0  0  0  0
    2.8132   -0.3299    0.0000 C   0  0  0  0  0  0  0  0  0  0  0  0
    5.7322    1.6462    0.0000 C   0  0  0  0  0  0  0  0  0  0  0  0
    3.0543   -2.1758    0.0000 C   0  0  1  0  0  0  0  0  0  0  0  0
    4.3599   -2.4534    0.0000 C   0  0  1  0  0  0  0  0  0  0  0  0
    4.3404   -1.2102    0.0000 C   0  0  0  0  0  0  0  0  0  0  0  0
    2.1364   -2.4994    0.0000 O   0  0  0  0  0  0  0  0  0  0  0  0
    1.4289   -1.2375    0.0000 C   0  0  0  0  0  0  0  0  0  0  0  0
    2.1434    0.0000    0.0000 C   0  0  0  0  0  0  0  0  0  0  0  0
    6.0053    0.8676    0.0000 O   0  0  0  0  0  0  0  0  0  0  0  0
    2.6358   -1.5241    0.0000 O   0  0  0  0  0  0  0  0  0  0  0  0
    3.1405   -2.9963    0.0000 C   0  0  2  0  0  0  0  0  0  0  0  0
    2.2432   -2.1272    0.0000 C   0  0  0  0  0  0  0  0  0  0  0  0
    4.9382   -2.5665    0.0000 O   0  0  0  0  0  0  0  0  0  0  0  0
    3.9474   -3.1679    0.0000 C   0  0  0  0  0  0  0  0  0  0  0  0
    1.4289   -0.4125    0.0000 C   0  0  0  0  0  0  0  0  0  0  0  0
    6.8160    0.7149    0.0000 C   0  0  2  0  0  0  0  0  0  0  0  0
    5.4759   -1.9408    0.0000 C   0  0  0  0  0  0  0  0  0  0  0  0
    0.7145    0.0000    0.0000 C   0  0  0  0  0  0  0  0  0  0  0  0
    7.0890   -0.0637    0.0000 C   0  0  0  0  0  0  0  0  0  0  0  0
    7.3537    1.3405    0.0000 C   0  0  1  0  0  0  0  0  0  0  0  0
    5.2029   -1.1622    0.0000 O   0  0  0  0  0  0  0  0  0  0  0  0
    6.2867   -2.0936    0.0000 C   0  0  0  0  0  0  0  0  0  0  0  0
    0.7145    0.8250    0.0000 O   0  0  0  0  0  0  0  0  0  0  0  0
    0.0000   -0.4125    0.0000 O   0  0  0  0  0  0  0  0  0  0  0  0
    6.5513   -0.6894    0.0000 C   0  0  0  0  0  0  0  0  0  0  0  0
    8.1644    1.1877    0.0000 O   0  0  0  0  0  0  0  0  0  0  0  0
    7.0807    2.1191    0.0000 C   0  0  0  0  0  0  0  0  0  0  0  0
    6.8244   -1.4679    0.0000 C   0  0  0  0  0  0  0  0  0  0  0  0
  1  2  2  0  0  0  0 
  2  3  1  0  0  0  0 
  2  4  1  0  0  0  0 
  3  5  1  0  0  0  0 
  4  6  2  3  0  0  0 
  7  5  1  1  0  0  0 
  6  8  1  0  0  0  0 
  6  9  1  0  0  0  0 
 10  7  1  0  0  0  0 
 11  7  1  0  0  0  0 
  7 12  1  0  0  0  0 
  8 13  1  0  0  0  0 
 14 10  1  0  0  0  0 
 15 10  1  0  0  0  0 
 10 16  1  6  0  0  0 
 11 17  1  6  0  0  0 
 11 18  1  0  0  0  0 
 12 19  1  0  0  0  0 
 13 20  1  0  0  0  0 
 14 21  1  6  0  0  0 
 22 14  1  0  0  0  0 
 14 23  1  0  0  0  0 
 15 24  1  1  0  0  0 
 15 25  1  0  0  0  0 
 18 26  2  0  0  0  0 
 27 20  1  1  0  0  0 
 24 28  1  0  0  0  0 
 26 29  1  0  0  0  0 
 27 30  1  0  0  0  0 
 31 27  1  0  0  0  0 
 28 32  2  0  0  0  0 
 28 33  1  0  0  0  0 
 29 34  2  0  0  0  0 
 29 35  1  0  0  0  0 
 30 36  2  0  0  0  0 
 31 37  1  6  0  0  0 
 31 38  1  0  0  0  0 
 33 39  2  0  0  0  0 
 22 17  1  1  0  0  0 
 19 26  1  0  0  0  0 
 21 23  1  0  0  0  0 
 22 25  1  0  0  0  0 
 36 39  1  0  0  0  0 
M  END
> <ID>
CHEBI:218206

> <NAME>
Epiroridin acid

$$$$

CDK     1030232202

 24 28  0  0  0  0  0  0  0  0999 V2000
    0.0000   -1.2375    0.0000 O   0  0  0  0  0  0  0  0  0  0  0  0
    0.7145   -1.6500    0.0000 C   0  0  0  0  0  0  0  0  0  0  0  0
    1.4290   -1.2375    0.0000 C   0  0  0  0  0  0  0  0  0  0  0  0
    0.7145   -2.4750    0.0000 C   0  0  0  0  0  0  0  0  0  0  0  0
    2.1435   -1.6500    0.0000 C   0  0  0  0  0  0  0  0  0  0  0  0
    1.4290   -0.4125    0.0000 C   0  0  0  0  0  0  0  0  0  0  0  0
    1.4290   -2.8875    0.0000 C   0  0  0  0  0  0  0  0  0  0  0  0
    0.0000   -2.8875    0.0000 C   0  0  0  0  0  0  0  0  0  0  0  0
    2.1435   -2.4750    0.0000 O   0  0  0  0  0  0  0  0  0  0  0  0
    2.8579   -1.2375    0.0000 C   0  0  0  0  0  0  0  0  0  0  0  0
    0.7145    0.0000    0.0000 O   0  0  0  0  0  0  0  0  0  0  0  0
    2.1435    0.0000    0.0000 C   0  0  0  0  0  0  0  0  0  0  0  0
    1.4290   -3.7126    0.0000 C   0  0  0  0  0  0  0  0  0  0  0  0
   -0.7145   -2.4750    0.0000 O   0  0  0  0  0  0  0  0  0  0  0  0
    0.0000   -3.7126    0.0000 C   0  0  0  0  0  0  0  0  0  0  0  0
    2.8579   -0.4125    0.0000 C   0  0  0  0  0  0  0  0  0  0  0  0
    0.0000   -0.4125    0.0000 C   0  0  0  0  0  0  0  0  0  0  0  0
    0.7145   -4.1251    0.0000 C   0  0  0  0  0  0  0  0  0  0  0  0
    2.0421   -4.2646    0.0000 C   0  0  1  0  0  0  0  0  0  0  0  0
    0.8860   -4.9320    0.0000 O   0  0  0  0  0  0  0  0  0  0  0  0
    1.7065   -5.0183    0.0000 C   0  0  1  0  0  0  0  0  0  0  0  0
    2.8625   -4.3509    0.0000 C   0  0  0  0  0  0  0  0  0  0  0  0
    2.3196   -5.5703    0.0000 O   0  0  0  0  0  0  0  0  0  0  0  0
    3.0341   -5.1578    0.0000 C   0  0  0  0  0  0  0  0  0  0  0  0
  1  2  2  0  0  0  0 
  2  3  1  0  0  0  0 
  2  4  1  0  0  0  0 
  3  5  2  0  0  0  0 
  3  6  1  0  0  0  0 
  4  7  2  0  0  0  0 
  4  8  1  0  0  0  0 
  5  9  1  0  0  0  0 
  5 10  1  0  0  0  0 
  6 11  1  0  0  0  0 
  6 12  2  0  0  0  0 
  7 13  1  0  0  0  0 
  8 14  1  0  0  0  0 
  8 15  2  0  0  0  0 
 10 16  2  0  0  0  0 
 11 17  1  0  0  0  0 
 13 18  2  0  0  0  0 
 19 13  1  0  0  0  0 
 18 20  1  0  0  0  0 
 21 19  1  0  0  0  0 
 19 22  1  6  0  0  0 
 21 23  1  6  0  0  0 
 22 24  1  0  0  0  0 
  7  9  1  0  0  0  0 
 12 16  1  0  0  0  0 
 15 18  1  0  0  0  0 
 20 21  1  0  0  0  0 
 23 24  1  0  0  0  0 
M  END
> <ID>
CHEBI:218327

> <NAME>
(3S,7R)-11-hydroxy-15-methoxy-6,8,20-trioxapentacyclo[10.8.0.02,9.03,7.014,19]icosa-1(12),2(9),10,14(19),15,17-hexaen-13-one

$$$$

CDK     1030232202

 34 37  0  0  0  0  0  0  0  0999 V2000
    3.5724    0.8250    0.0000 O   0  0  0  0  0  0  0  0  0  0  0  0
    3.5724    0.0000    0.0000 C   0  0  0  0  0  0  0  0  0  0  0  0
    4.2869   -0.4125    0.0000 O   0  0  0  0  0  0  0  0  0  0  0  0
    2.8579   -0.4125    0.0000 C   0  0  0  0  0  0  0  0  0  0  0  0
    5.0014    0.0000    0.0000 C   0  0  2  0  0  0  0  0  0  0  0  0
    2.1434    0.0000    0.0000 C   0  0  0  0  0  0  0  0  0  0  0  0
    5.7158   -0.4125    0.0000 C   0  0  0  0  0  0  0  0  0  0  0  0
    5.0014    0.8250    0.0000 C   0  0  0  0  0  0  0  0  0  0  0  0
    1.4290   -0.4125    0.0000 C   0  0  0  0  0  0  0  0  0  0  0  0
    6.4303    0.0000    0.0000 C   0  0  0  0  0  0  0  0  0  0  0  0
    5.7158   -1.2375    0.0000 C   0  0  0  0  0  0  0  0  0  0  0  0
    5.6911    1.2409    0.0000 C   0  0  1  0  0  0  0  0  0  0  0  0
    0.7145    0.0000    0.0000 C   0  0  0  0  0  0  0  0  0  0  0  0
    6.4311    0.8099    0.0000 C   0  0  2  0  0  0  0  0  0  0  0  0
    5.7628    2.3617    0.0000 C   0  0  1  0  0  0  0  0  0  0  0  0
    5.0101    1.6649    0.0000 C   0  0  0  0  0  0  0  0  0  0  0  0
    0.0000   -0.4125    0.0000 C   0  0  0  0  0  0  0  0  0  0  0  0
    7.1672    1.2382    0.0000 O   0  0  0  0  0  0  0  0  0  0  0  0
    6.4303    1.8767    0.0000 C   0  0  2  0  0  0  0  0  0  0  0  0
    6.0178    3.1463    0.0000 C   0  0  2  0  0  0  0  0  0  0  0  0
    4.9509    2.5077    0.0000 C   0  0  0  0  0  0  0  0  0  0  0  0
    4.2871    1.2674    0.0000 O   0  0  0  0  0  0  0  0  0  0  0  0
    7.0977    2.3617    0.0000 C   0  0  1  0  0  0  0  0  0  0  0  0
    6.0751    1.1884    0.0000 O   0  0  0  0  0  0  0  0  0  0  0  0
    6.7773    1.2269    0.0000 C   0  0  0  0  0  0  0  0  0  0  0  0
    5.5328    3.8138    0.0000 O   0  0  0  0  0  0  0  0  0  0  0  0
    6.8428    3.1463    0.0000 C   0  0  2  0  0  0  0  0  0  0  0  0
    3.5814    1.6947    0.0000 C   0  0  0  0  0  0  0  0  0  0  0  0
    5.8684    4.5674    0.0000 C   0  0  0  0  0  0  0  0  0  0  0  0
    7.3277    3.8138    0.0000 O   0  0  0  0  0  0  0  0  0  0  0  0
    3.5988    2.5196    0.0000 O   0  0  0  0  0  0  0  0  0  0  0  0
    2.8586    1.2972    0.0000 C   0  0  0  0  0  0  0  0  0  0  0  0
    6.6889    4.6536    0.0000 O   0  0  0  0  0  0  0  0  0  0  0  0
    5.3835    5.2348    0.0000 C   0  0  0  0  0  0  0  0  0  0  0  0
  1  2  2  0  0  0  0 
  2  3  1  0  0  0  0 
  2  4  1  0  0  0  0 
  5  3  1  1  0  0  0 
  4  6  1  0  0  0  0 
  5  7  1  0  0  0  0 
  5  8  1  0  0  0  0 
  6  9  1  0  0  0  0 
  7 10  2  0  0  0  0 
  7 11  1  0  0  0  0 
 12  8  1  0  0  0  0 
  9 13  1  0  0  0  0 
 14 10  1  0  0  0  0 
 15 12  1  0  0  0  0 
 12 16  1  1  0  0  0 
 13 17  1  0  0  0  0 
 14 18  1  6  0  0  0 
 19 15  1  0  0  0  0 
 20 15  1  0  0  0  0 
 15 21  1  1  0  0  0 
 16 22  1  0  0  0  0 
 23 18  1  1  0  0  0 
 19 24  1  6  0  0  0 
 19 25  1  0  0  0  0 
 20 26  1  6  0  0  0 
 27 20  1  0  0  0  0 
 22 28  1  0  0  0  0 
 26 29  1  0  0  0  0 
 27 30  1  1  0  0  0 
 28 31  2  0  0  0  0 
 28 32  1  0  0  0  0 
 29 33  2  0  0  0  0 
 29 34  1  0  0  0  0 
 12 14  1  0  0  0  0 
 19 23  1  0  0  0  0 
 23 27  1  0  0  0  0 
 24 25  1  0  0  0  0 
M  END
> <ID>
CHEBI:219794

> <NAME>
8-n-Hexanoylneosolaniol

$$$$

CDK     1030232202

 29 32  0  0  0  0  0  0  0  0999 V2000
    5.7159   -1.2375    0.0000 O   0  0  0  0  0  0  0  0  0  0  0  0
    5.7159   -0.4125    0.0000 C   0  0  0  0  0  0  0  0  0  0  0  0
    6.4304    0.0000    0.0000 O   0  0  0  0  0  0  0  0  0  0  0  0
    5.0014    0.0000    0.0000 C   0  0  0  0  0  0  0  0  0  0  0  0
    7.1449   -0.4125    0.0000 C   0  0  0  0  0  0  0  0  0  0  0  0
    4.2870   -0.4125    0.0000 C   0  0  0  0  0  0  0  0  0  0  0  0
    7.2311   -1.2330    0.0000 C   0  0  0  0  0  0  0  0  0  0  0  0
    7.8986   -0.0770    0.0000 C   0  0  0  0  0  0  0  0  0  0  0  0
    3.5724    0.0000    0.0000 C   0  0  0  0  0  0  0  0  0  0  0  0
    7.6214   -2.2861    0.0000 C   0  0  0  0  0  0  0  0  0  0  0  0
    8.0381   -1.4045    0.0000 C   0  0  0  0  0  0  0  0  0  0  0  0
    6.4299   -1.4298    0.0000 C   0  0  0  0  0  0  0  0  0  0  0  0
    8.4506   -0.6900    0.0000 C   0  0  0  0  0  0  0  0  0  0  0  0
    2.8579   -0.4125    0.0000 C   0  0  0  0  0  0  0  0  0  0  0  0
    8.4728   -2.3788    0.0000 C   0  0  0  0  0  0  0  0  0  0  0  0
    7.1604   -2.9466    0.0000 C   0  0  0  0  0  0  0  0  0  0  0  0
    6.8269   -2.1757    0.0000 C   0  0  0  0  0  0  0  0  0  0  0  0
    7.9935   -2.1778    0.0000 O   0  0  0  0  0  0  0  0  0  0  0  0
    8.6195   -1.8570    0.0000 C   0  0  0  0  0  0  0  0  0  0  0  0
    8.9711   -1.6882    0.0000 O   0  0  0  0  0  0  0  0  0  0  0  0
    2.1435    0.0000    0.0000 C   0  0  0  0  0  0  0  0  0  0  0  0
    8.8015   -3.1191    0.0000 C   0  0  0  0  0  0  0  0  0  0  0  0
    7.4960   -3.7003    0.0000 C   0  0  0  0  0  0  0  0  0  0  0  0
    1.4290   -0.4125    0.0000 C   0  0  0  0  0  0  0  0  0  0  0  0
    8.3165   -3.7865    0.0000 C   0  0  0  0  0  0  0  0  0  0  0  0
    0.7145    0.0000    0.0000 C   0  0  0  0  0  0  0  0  0  0  0  0
    8.6520   -4.5402    0.0000 C   0  0  0  0  0  0  0  0  0  0  0  0
    0.7145    0.8250    0.0000 O   0  0  0  0  0  0  0  0  0  0  0  0
    0.0000   -0.4125    0.0000 O   0  0  0  0  0  0  0  0  0  0  0  0
  1  2  2  0  0  0  0 
  2  3  1  0  0  0  0 
  2  4  1  0  0  0  0 
  3  5  1  0  0  0  0 
  4  6  2  0  0  0  0 
  5  7  1  0  0  0  0 
  5  8  1  0  0  0  0 
  6  9  1  0  0  0  0 
  7 10  1  0  0  0  0 
  7 11  1  0  0  0  0 
  7 12  1  0  0  0  0 
  8 13  1  0  0  0  0 
  9 14  2  0  0  0  0 
 10 15  1  0  0  0  0 
 10 16  1  0  0  0  0 
 10 17  1  0  0  0  0 
 11 18  1  0  0  0  0 
 11 19  1  0  0  0  0 
 13 20  1  0  0  0  0 
 14 21  1  0  0  0  0 
 15 22  1  0  0  0  0 
 16 23  1  0  0  0  0 
 21 24  2  0  0  0  0 
 22 25  2  0  0  0  0 
 24 26  1  0  0  0  0 
 25 27  1  0  0  0  0 
 26 28  2  0  0  0  0 
 26 29  1  0  0  0  0 
 11 13  1  0  0  0  0 
 15 20  1  0  0  0  0 
 18 19  1  0  0  0  0 
 23 25  1  0  0  0  0 
M  END
> <ID>
CHEBI:219910

> <NAME>
Harzianum A

$$$$

CDK     1030232202

 37 41  0  0  0  0  0  0  0  0999 V2000
    5.2029   -1.1623    0.0000 O   0  0  0  0  0  0  0  0  0  0  0  0
    5.4759   -1.9408    0.0000 C   0  0  0  0  0  0  0  0  0  0  0  0
    4.9382   -2.5665    0.0000 O   0  0  0  0  0  0  0  0  0  0  0  0
    6.2867   -2.0936    0.0000 C   0  0  0  0  0  0  0  0  0  0  0  0
    4.3600   -2.4534    0.0000 C   0  0  1  0  0  0  0  0  0  0  0  0
    6.8243   -1.4679    0.0000 C   0  0  0  0  0  0  0  0  0  0  0  0
    3.8079   -1.8403    0.0000 C   0  0  2  0  0  0  0  0  0  0  0  0
    3.9475   -3.1678    0.0000 C   0  0  0  0  0  0  0  0  0  0  0  0
    6.5513   -0.6894    0.0000 C   0  0  0  0  0  0  0  0  0  0  0  0
    2.8731   -1.2178    0.0000 C   0  0  1  0  0  0  0  0  0  0  0  0
    3.0542   -2.1759    0.0000 C   0  0  2  0  0  0  0  0  0  0  0  0
    4.3404   -1.2101    0.0000 C   0  0  0  0  0  0  0  0  0  0  0  0
    3.1404   -2.9963    0.0000 C   0  0  2  0  0  0  0  0  0  0  0  0
    7.0890   -0.0637    0.0000 C   0  0  0  0  0  0  0  0  0  0  0  0
    2.1277   -1.6418    0.0000 C   0  0  2  0  0  0  0  0  0  0  0  0
    2.6816   -0.7298    0.0000 C   0  0  0  0  0  0  0  0  0  0  0  0
    2.8063   -0.3463    0.0000 C   0  0  0  0  0  0  0  0  0  0  0  0
    2.6358   -1.5241    0.0000 O   0  0  0  0  0  0  0  0  0  0  0  0
    2.2770   -2.2054    0.0000 C   0  0  0  0  0  0  0  0  0  0  0  0
    2.1186   -2.5250    0.0000 O   0  0  0  0  0  0  0  0  0  0  0  0
    6.8160    0.7149    0.0000 C   0  0  0  0  0  0  0  0  0  0  0  0
    1.4290   -1.2375    0.0000 C   0  0  0  0  0  0  0  0  0  0  0  0
    3.3084   -0.0781    0.0000 O   0  0  0  0  0  0  0  0  0  0  0  0
    2.1434    0.0000    0.0000 C   0  0  0  0  0  0  0  0  0  0  0  0
    7.3537    1.3405    0.0000 O   0  0  0  0  0  0  0  0  0  0  0  0
    6.0053    0.8677    0.0000 O   0  0  0  0  0  0  0  0  0  0  0  0
    1.4290   -0.4125    0.0000 C   0  0  0  0  0  0  0  0  0  0  0  0
    3.0354    0.7003    0.0000 C   0  0  0  0  0  0  0  0  0  0  0  0
    5.7323    1.6462    0.0000 C   0  0  0  0  0  0  0  0  0  0  0  0
    0.7144    0.0000    0.0000 C   0  0  0  0  0  0  0  0  0  0  0  0
    2.2247    0.8532    0.0000 O   0  0  0  0  0  0  0  0  0  0  0  0
    3.5731    1.3261    0.0000 C   0  0  1  0  0  0  0  0  0  0  0  0
    4.9215    1.7990    0.0000 C   0  0  0  0  0  0  0  0  0  0  0  0
    0.0000   -0.4125    0.0000 O   0  0  0  0  0  0  0  0  0  0  0  0
    3.3001    2.1046    0.0000 O   0  0  0  0  0  0  0  0  0  0  0  0
    4.3838    1.1732    0.0000 C   0  0  1  0  0  0  0  0  0  0  0  0
    4.6569    0.3948    0.0000 C   0  0  0  0  0  0  0  0  0  0  0  0
  1  2  2  0  0  0  0 
  2  3  1  0  0  0  0 
  2  4  1  0  0  0  0 
  5  3  1  6  0  0  0 
  4  6  2  0  0  0  0 
  7  5  1  0  0  0  0 
  5  8  1  0  0  0  0 
  6  9  1  0  0  0  0 
 10  7  1  0  0  0  0 
 11  7  1  0  0  0  0 
  7 12  1  6  0  0  0 
 13  8  1  0  0  0  0 
  9 14  2  0  0  0  0 
 15 10  1  0  0  0  0 
 10 16  1  1  0  0  0 
 10 17  1  0  0  0  0 
 11 18  1  6  0  0  0 
 11 19  1  0  0  0  0 
 13 20  1  1  0  0  0 
 14 21  1  0  0  0  0 
 15 22  1  0  0  0  0 
 16 23  1  0  0  0  0 
 17 24  1  0  0  0  0 
 21 25  2  0  0  0  0 
 21 26  1  0  0  0  0 
 22 27  2  0  0  0  0 
 23 28  1  0  0  0  0 
 26 29  1  0  0  0  0 
 27 30  1  0  0  0  0 
 28 31  2  0  0  0  0 
 32 28  1  0  0  0  0 
 29 33  1  0  0  0  0 
 30 34  1  0  0  0  0 
 32 35  1  1  0  0  0 
 36 32  1  0  0  0  0 
 36 37  1  1  0  0  0 
 11 13  1  0  0  0  0 
 15 20  1  6  0  0  0 
 18 19  1  0  0  0  0 
 24 27  1  0  0  0  0 
 33 36  1  0  0  0  0 
M  END
> <ID>
CHEBI:220024

> <NAME>
3-epi-16-hydroxyverrucarin A

$$$$

CDK     1030232202

 38 42  0  0  0  0  0  0  0  0999 V2000
    5.2029   -1.1623    0.0000 O   0  0  0  0  0  0  0  0  0  0  0  0
    5.4759   -1.9408    0.0000 C   0  0  0  0  0  0  0  0  0  0  0  0
    4.9382   -2.5665    0.0000 O   0  0  0  0  0  0  0  0  0  0  0  0
    6.2867   -2.0936    0.0000 C   0  0  0  0  0  0  0  0  0  0  0  0
    4.3600   -2.4534    0.0000 C   0  0  0  0  0  0  0  0  0  0  0  0
    6.8243   -1.4679    0.0000 C   0  0  0  0  0  0  0  0  0  0  0  0
    3.8079   -1.8403    0.0000 C   0  0  2  0  0  0  0  0  0  0  0  0
    3.9475   -3.1678    0.0000 C   0  0  0  0  0  0  0  0  0  0  0  0
    6.5513   -0.6894    0.0000 C   0  0  0  0  0  0  0  0  0  0  0  0
    2.8731   -1.2178    0.0000 C   0  0  1  0  0  0  0  0  0  0  0  0
    3.0542   -2.1759    0.0000 C   0  0  2  0  0  0  0  0  0  0  0  0
    4.3404   -1.2101    0.0000 C   0  0  0  0  0  0  0  0  0  0  0  0
    3.1404   -2.9963    0.0000 C   0  0  2  0  0  0  0  0  0  0  0  0
    7.0890   -0.0637    0.0000 C   0  0  0  0  0  0  0  0  0  0  0  0
    2.1277   -1.6418    0.0000 C   0  0  2  0  0  0  0  0  0  0  0  0
    2.6816   -0.7298    0.0000 C   0  0  0  0  0  0  0  0  0  0  0  0
    2.8063   -0.3463    0.0000 C   0  0  0  0  0  0  0  0  0  0  0  0
    2.6358   -1.5241    0.0000 O   0  0  0  0  0  0  0  0  0  0  0  0
    2.2770   -2.2054    0.0000 C   0  0  0  0  0  0  0  0  0  0  0  0
    2.1186   -2.5250    0.0000 O   0  0  0  0  0  0  0  0  0  0  0  0
    6.8160    0.7149    0.0000 C   0  0  0  0  0  0  0  0  0  0  0  0
    1.4290   -1.2375    0.0000 C   0  0  0  0  0  0  0  0  0  0  0  0
    3.3084   -0.0781    0.0000 O   0  0  0  0  0  0  0  0  0  0  0  0
    2.1434    0.0000    0.0000 C   0  0  0  0  0  0  0  0  0  0  0  0
    7.3537    1.3405    0.0000 O   0  0  0  0  0  0  0  0  0  0  0  0
    6.0053    0.8677    0.0000 O   0  0  0  0  0  0  0  0  0  0  0  0
    1.4290   -0.4125    0.0000 C   0  0  0  0  0  0  0  0  0  0  0  0
    3.0354    0.7003    0.0000 C   0  0  0  0  0  0  0  0  0  0  0  0
    5.7323    1.6462    0.0000 C   0  0  0  0  0  0  0  0  0  0  0  0
    0.7144    0.0000    0.0000 C   0  0  0  0  0  0  0  0  0  0  0  0
    2.2247    0.8532    0.0000 O   0  0  0  0  0  0  0  0  0  0  0  0
    3.5731    1.3261    0.0000 C   0  0  1  0  0  0  0  0  0  0  0  0
    4.9215    1.7990    0.0000 C   0  0  0  0  0  0  0  0  0  0  0  0
    0.7144    0.8250    0.0000 O   0  0  0  0  0  0  0  0  0  0  0  0
    0.0000   -0.4125    0.0000 O   0  0  0  0  0  0  0  0  0  0  0  0
    3.3001    2.1046    0.0000 O   0  0  0  0  0  0  0  0  0  0  0  0
    4.3838    1.1732    0.0000 C   0  0  1  0  0  0  0  0  0  0  0  0
    4.6569    0.3948    0.0000 C   0  0  0  0  0  0  0  0  0  0  0  0
  1  2  2  0  0  0  0 
  2  3  1  0  0  0  0 
  2  4  1  0  0  0  0 
  3  5  1  0  0  0  0 
  4  6  2  0  0  0  0 
  7  5  1  0  0  0  0 
  5  8  1  0  0  0  0 
  6  9  1  0  0  0  0 
 10  7  1  0  0  0  0 
 11  7  1  0  0  0  0 
  7 12  1  6  0  0  0 
 13  8  1  0  0  0  0 
  9 14  2  0  0  0  0 
 15 10  1  0  0  0  0 
 10 16  1  1  0  0  0 
 10 17  1  0  0  0  0 
 11 18  1  6  0  0  0 
 11 19  1  0  0  0  0 
 13 20  1  1  0  0  0 
 14 21  1  0  0  0  0 
 15 22  1  0  0  0  0 
 16 23  1  0  0  0  0 
 17 24  1  0  0  0  0 
 21 25  2  0  0  0  0 
 21 26  1  0  0  0  0 
 22 27  2  0  0  0  0 
 23 28  1  0  0  0  0 
 26 29  1  0  0  0  0 
 27 30  1  0  0  0  0 
 28 31  2  0  0  0  0 
 32 28  1  0  0  0  0 
 29 33  1  0  0  0  0 
 30 34  2  0  0  0  0 
 30 35  1  0  0  0  0 
 32 36  1  1  0  0  0 
 37 32  1  0  0  0  0 
 37 38  1  1  0  0  0 
 11 13  1  0  0  0  0 
 15 20  1  6  0  0  0 
 18 19  1  0  0  0  0 
 24 27  1  0  0  0  0 
 33 37  1  0  0  0  0 
M  END
> <ID>
CHEBI:220032

> <NAME>
3-epiverrucarin X

$$$$

CDK     1030232202

 23 26  0  0  0  0  0  0  0  0999 V2000
    2.1435    0.0000    0.0000 O   0  0  0  0  0  0  0  0  0  0  0  0
    1.4290   -0.4125    0.0000 C   0  0  0  0  0  0  0  0  0  0  0  0
    0.7145    0.0000    0.0000 O   0  0  0  0  0  0  0  0  0  0  0  0
    1.4290   -1.2375    0.0000 C   0  0  0  0  0  0  0  0  0  0  0  0
    0.0000   -0.4125    0.0000 C   0  0  1  0  0  0  0  0  0  0  0  0
   -0.7537   -0.0770    0.0000 C   0  0  0  0  0  0  0  0  0  0  0  0
   -0.0862   -1.2330    0.0000 C   0  0  0  0  0  0  0  0  0  0  0  0
   -1.8638    0.1096    0.0000 O   0  0  0  0  0  0  0  0  0  0  0  0
   -1.3058   -0.6900    0.0000 C   0  0  0  0  0  0  0  0  0  0  0  0
   -0.8932   -1.4045    0.0000 C   0  0  1  0  0  0  0  0  0  0  0  0
   -2.3666   -0.5777    0.0000 C   0  0  1  0  0  0  0  0  0  0  0  0
   -1.9158   -0.2770    0.0000 O   0  0  0  0  0  0  0  0  0  0  0  0
   -2.0274   -0.9714    0.0000 C   0  0  0  0  0  0  0  0  0  0  0  0
   -2.0154   -1.3587    0.0000 C   0  0  2  0  0  0  0  0  0  0  0  0
   -0.7418   -2.2542    0.0000 C   0  0  0  0  0  0  0  0  0  0  0  0
   -3.1722   -0.4939    0.0000 C   0  0  0  0  0  0  0  0  0  0  0  0
   -2.5011   -2.0012    0.0000 C   0  0  2  0  0  0  0  0  0  0  0  0
   -1.6649   -2.0803    0.0000 C   0  0  0  0  0  0  0  0  0  0  0  0
   -3.6571   -1.1613    0.0000 C   0  0  0  0  0  0  0  0  0  0  0  0
   -2.1655   -2.7550    0.0000 O   0  0  0  0  0  0  0  0  0  0  0  0
   -3.3216   -1.9150    0.0000 C   0  0  0  0  0  0  0  0  0  0  0  0
   -1.0464   -2.1644    0.0000 O   0  0  0  0  0  0  0  0  0  0  0  0
   -4.4776   -1.0751    0.0000 C   0  0  0  0  0  0  0  0  0  0  0  0
  1  2  2  0  0  0  0 
  2  3  1  0  0  0  0 
  2  4  1  0  0  0  0 
  5  3  1  6  0  0  0 
  5  6  1  0  0  0  0 
  5  7  1  0  0  0  0 
  6  8  1  0  0  0  0 
  6  9  1  0  0  0  0 
 10  7  1  0  0  0  0 
 11  8  1  1  0  0  0 
  9 12  1  0  0  0  0 
  9 13  1  0  0  0  0 
 14 10  1  0  0  0  0 
 10 15  1  1  0  0  0 
 11 16  1  0  0  0  0 
 17 14  1  0  0  0  0 
 14 18  1  6  0  0  0 
 16 19  2  0  0  0  0 
 17 20  1  6  0  0  0 
 17 21  1  0  0  0  0 
 18 22  1  0  0  0  0 
 19 23  1  0  0  0  0 
  9 10  1  0  0  0  0 
 11 14  1  0  0  0  0 
 12 13  1  0  0  0  0 
 19 21  1  0  0  0  0 
M  END
> <ID>
CHEBI:220512

> <NAME>
NX-2

$$$$

CDK     1030232202

 20 23  0  0  0  0  0  0  0  0999 V2000
    2.1277   -1.6847    0.0000 O   0  0  0  0  0  0  0  0  0  0  0  0
    2.1482   -0.8333    0.0000 C   0  0  2  0  0  0  0  0  0  0  0  0
    1.1096   -2.1651    0.0000 C   0  0  0  0  0  0  0  0  0  0  0  0
    2.8576   -0.4424    0.0000 C   0  0  0  0  0  0  0  0  0  0  0  0
    1.4141   -0.3925    0.0000 C   0  0  1  0  0  0  0  0  0  0  0  0
    1.2130   -1.3466    0.0000 C   0  0  0  0  0  0  0  0  0  0  0  0
    0.2993   -2.3197    0.0000 C   0  0  2  0  0  0  0  0  0  0  0  0
    2.8748    0.3825    0.0000 C   0  0  0  0  0  0  0  0  0  0  0  0
    0.4665   -0.9953    0.0000 C   0  0  2  0  0  0  0  0  0  0  0  0
    1.4462    0.4123    0.0000 C   0  0  1  0  0  0  0  0  0  0  0  0
    0.7145    0.0000    0.0000 C   0  0  0  0  0  0  0  0  0  0  0  0
    1.9497   -1.3376    0.0000 O   0  0  0  0  0  0  0  0  0  0  0  0
    1.6451   -0.7036    0.0000 C   0  0  0  0  0  0  0  0  0  0  0  0
   -0.0520   -3.0662    0.0000 O   0  0  0  0  0  0  0  0  0  0  0  0
   -0.0982   -1.5967    0.0000 C   0  0  0  0  0  0  0  0  0  0  0  0
    2.1691    0.8098    0.0000 C   0  0  0  0  0  0  0  0  0  0  0  0
    3.5978    0.7800    0.0000 C   0  0  0  0  0  0  0  0  0  0  0  0
   -0.1427   -0.3840    0.0000 C   0  0  0  0  0  0  0  0  0  0  0  0
    0.7405    0.8397    0.0000 O   0  0  0  0  0  0  0  0  0  0  0  0
    0.1586   -0.2841    0.0000 O   0  0  0  0  0  0  0  0  0  0  0  0
  2  1  1  1  0  0  0 
  1  3  1  0  0  0  0 
  2  4  1  0  0  0  0 
  5  2  1  0  0  0  0 
  3  6  1  0  0  0  0 
  7  3  1  0  0  0  0 
  4  8  2  0  0  0  0 
  9  5  1  0  0  0  0 
 10  5  1  0  0  0  0 
  5 11  1  6  0  0  0 
  6 12  1  0  0  0  0 
  6 13  1  0  0  0  0 
  7 14  1  6  0  0  0 
  7 15  1  0  0  0  0 
  8 16  1  0  0  0  0 
  8 17  1  0  0  0  0 
  9 18  1  1  0  0  0 
 10 19  1  6  0  0  0 
 11 20  1  0  0  0  0 
  6  9  1  0  0  0  0 
  9 15  1  0  0  0  0 
 10 16  1  0  0  0  0 
 12 13  1  0  0  0  0 
M  END
> <ID>
CHEBI:220518

> <NAME>
NX-3

$$$$

CDK     1030232202

 23 26  0  0  0  0  0  0  0  0999 V2000
    2.8578   -0.4125    0.0000 O   0  0  0  0  0  0  0  0  0  0  0  0
    2.1434    0.0000    0.0000 C   0  0  0  0  0  0  0  0  0  0  0  0
    1.5738   -0.5094    0.0000 O   0  0  0  0  0  0  0  0  0  0  0  0
    2.1434    0.8250    0.0000 C   0  0  0  0  0  0  0  0  0  0  0  0
    0.7144    0.0000    0.0000 C   0  0  0  0  0  0  0  0  0  0  0  0
    0.0148   -0.3924    0.0000 C   0  0  1  0  0  0  0  0  0  0  0  0
    0.9624   -0.9953    0.0000 C   0  0  2  0  0  0  0  0  0  0  0  0
   -0.7193   -0.8333    0.0000 C   0  0  2  0  0  0  0  0  0  0  0  0
   -0.0172    0.4123    0.0000 C   0  0  2  0  0  0  0  0  0  0  0  0
    0.2159   -1.3465    0.0000 C   0  0  0  0  0  0  0  0  0  0  0  0
    1.5271   -1.5967    0.0000 C   0  0  0  0  0  0  0  0  0  0  0  0
    1.4889   -0.2081    0.0000 C   0  0  0  0  0  0  0  0  0  0  0  0
   -0.6987   -1.6846    0.0000 O   0  0  0  0  0  0  0  0  0  0  0  0
   -1.4286   -0.4424    0.0000 C   0  0  0  0  0  0  0  0  0  0  0  0
    0.6885    0.8397    0.0000 O   0  0  0  0  0  0  0  0  0  0  0  0
   -0.7402    0.8098    0.0000 C   0  0  0  0  0  0  0  0  0  0  0  0
   -0.2161   -0.7036    0.0000 O   0  0  0  0  0  0  0  0  0  0  0  0
    0.3193   -2.1650    0.0000 C   0  0  0  0  0  0  0  0  0  0  0  0
   -0.5207   -1.3376    0.0000 C   0  0  0  0  0  0  0  0  0  0  0  0
    1.1297   -2.3196    0.0000 C   0  0  2  0  0  0  0  0  0  0  0  0
   -1.4459    0.3825    0.0000 C   0  0  0  0  0  0  0  0  0  0  0  0
    1.4809   -3.0661    0.0000 O   0  0  0  0  0  0  0  0  0  0  0  0
   -2.1688    0.7799    0.0000 C   0  0  0  0  0  0  0  0  0  0  0  0
  1  2  2  0  0  0  0 
  2  3  1  0  0  0  0 
  2  4  1  0  0  0  0 
  3  5  1  0  0  0  0 
  6  5  1  1  0  0  0 
  7  6  1  0  0  0  0 
  8  6  1  0  0  0  0 
  9  6  1  0  0  0  0 
  7 10  1  0  0  0  0 
  7 11  1  0  0  0  0 
  7 12  1  6  0  0  0 
  8 13  1  6  0  0  0 
  8 14  1  0  0  0  0 
  9 15  1  1  0  0  0 
  9 16  1  0  0  0  0 
 10 17  1  0  0  0  0 
 10 18  1  0  0  0  0 
 10 19  1  0  0  0  0 
 20 11  1  0  0  0  0 
 14 21  2  0  0  0  0 
 20 22  1  1  0  0  0 
 21 23  1  0  0  0  0 
 13 18  1  0  0  0  0 
 16 21  1  0  0  0  0 
 17 19  1  0  0  0  0 
 18 20  1  0  0  0  0 
M  END
> <ID>
CHEBI:220524

> <NAME>
NX-4

$$$$

CDK     1030232202

 40 47  0  0  0  0  0  0  0  0999 V2000
    0.6217    2.2977    0.0000 O   0  0  0  0  0  0  0  0  0  0  0  0
   -0.0962    1.8911    0.0000 C   0  0  0  0  0  0  0  0  0  0  0  0
   -0.1030    1.0661    0.0000 O   0  0  0  0  0  0  0  0  0  0  0  0
   -0.8072    2.3096    0.0000 C   0  0  0  0  0  0  0  0  0  0  0  0
    0.4028    0.7639    0.0000 C   0  0  1  0  0  0  0  0  0  0  0  0
   -1.5251    1.9031    0.0000 C   0  0  0  0  0  0  0  0  0  0  0  0
    0.7145    0.0000    0.0000 C   0  0  2  0  0  0  0  0  0  0  0  0
    1.0330    1.2963    0.0000 C   0  0  0  0  0  0  0  0  0  0  0  0
   -1.5753    1.1185    0.0000 C   0  0  0  0  0  0  0  0  0  0  0  0
    1.3830   -0.9024    0.0000 C   0  0  1  0  0  0  0  0  0  0  0  0
    1.5373    0.0604    0.0000 C   0  0  0  0  0  0  0  0  0  0  0  0
    0.0303   -0.3785    0.0000 C   0  0  0  0  0  0  0  0  0  0  0  0
    1.7341    0.8616    0.0000 C   0  0  0  0  0  0  0  0  0  0  0  0
   -2.2033    0.7626    0.0000 C   0  0  0  0  0  0  0  0  0  0  0  0
    2.2265   -0.7539    0.0000 C   0  0  2  0  0  0  0  0  0  0  0  0
    1.3950   -1.4359    0.0000 C   0  0  0  0  0  0  0  0  0  0  0  0
    1.1441   -1.7498    0.0000 C   0  0  0  0  0  0  0  0  0  0  0  0
    1.7102   -0.6946    0.0000 O   0  0  0  0  0  0  0  0  0  0  0  0
    2.2219   -0.2120    0.0000 C   0  0  0  0  0  0  0  0  0  0  0  0
    2.5123    0.0483    0.0000 O   0  0  0  0  0  0  0  0  0  0  0  0
   -2.3224   -0.1963    0.0000 C   0  0  1  0  0  0  0  0  0  0  0  0
    2.7486   -1.3731    0.0000 C   0  0  0  0  0  0  0  0  0  0  0  0
    0.5874   -1.8272    0.0000 O   0  0  0  0  0  0  0  0  0  0  0  0
    1.6571   -2.2954    0.0000 C   0  0  0  0  0  0  0  0  0  0  0  0
   -2.9627   -0.7166    0.0000 O   0  0  0  0  0  0  0  0  0  0  0  0
   -2.4283    0.5623    0.0000 C   0  0  0  0  0  0  0  0  0  0  0  0
   -1.5517   -0.4906    0.0000 C   0  0  2  0  0  0  0  0  0  0  0  0
    2.4691   -2.1493    0.0000 C   0  0  0  0  0  0  0  0  0  0  0  0
   -0.1236   -1.4087    0.0000 C   0  0  0  0  0  0  0  0  0  0  0  0
   -2.8322   -1.5312    0.0000 C   0  0  0  0  0  0  0  0  0  0  0  0
   -2.9227    1.1458    0.0000 O   0  0  0  0  0  0  0  0  0  0  0  0
   -1.4529    0.7604    0.0000 C   0  0  0  0  0  0  0  0  0  0  0  0
   -1.0336    0.1514    0.0000 O   0  0  0  0  0  0  0  0  0  0  0  0
   -1.4212   -1.3052    0.0000 C   0  0  1  0  0  0  0  0  0  0  0  0
    3.0016   -2.7795    0.0000 C   0  0  0  0  0  0  0  0  0  0  0  0
   -0.2141   -0.6522    0.0000 O   0  0  0  0  0  0  0  0  0  0  0  0
   -0.9009   -1.9455    0.0000 C   0  0  0  0  0  0  0  0  0  0  0  0
   -2.0615   -1.8255    0.0000 C   0  0  0  0  0  0  0  0  0  0  0  0
   -1.1524    1.6130    0.0000 O   0  0  0  0  0  0  0  0  0  0  0  0
   -0.6066   -1.1748    0.0000 O   0  0  0  0  0  0  0  0  0  0  0  0
  1  2  2  0  0  0  0 
  2  3  1  0  0  0  0 
  2  4  1  0  0  0  0 
  5  3  1  6  0  0  0 
  4  6  2  0  0  0  0 
  7  5  1  0  0  0  0 
  5  8  1  0  0  0  0 
  6  9  1  0  0  0  0 
 10  7  1  0  0  0  0 
  7 11  1  0  0  0  0 
  7 12  1  6  0  0  0 
  8 13  1  0  0  0  0 
  9 14  2  0  0  0  0 
 15 10  1  0  0  0  0 
 10 16  1  1  0  0  0 
 10 17  1  0  0  0  0 
 11 18  1  0  0  0  0 
 11 19  1  0  0  0  0 
 13 20  1  0  0  0  0 
 21 14  1  0  0  0  0 
 15 22  1  0  0  0  0 
 16 23  1  0  0  0  0 
 17 24  1  0  0  0  0 
 21 25  1  1  0  0  0 
 21 26  1  0  0  0  0 
 27 21  1  0  0  0  0 
 22 28  2  0  0  0  0 
 23 29  1  0  0  0  0 
 25 30  1  0  0  0  0 
 26 31  1  0  0  0  0 
 26 32  1  0  0  0  0 
 27 33  1  6  0  0  0 
 34 27  1  0  0  0  0 
 28 35  1  0  0  0  0 
 29 36  2  0  0  0  0 
 29 37  1  0  0  0  0 
 30 38  1  0  0  0  0 
 32 39  2  0  0  0  0 
 34 40  1  6  0  0  0 
 11 13  1  0  0  0  0 
 15 20  1  6  0  0  0 
 18 19  1  0  0  0  0 
 24 28  1  0  0  0  0 
 32 33  1  0  0  0  0 
 34 37  1  0  0  0  0 
 34 38  1  0  0  0  0 
 37 40  1  0  0  0  0 
M  END
> <ID>
CHEBI:221218

> <NAME>
Roritoxin D

$$$$

CDK     1030232202

 39 43  0  0  0  0  0  0  0  0999 V2000
    6.8008   -2.4713    0.0000 O   0  0  0  0  0  0  0  0  0  0  0  0
    7.6194   -2.5747    0.0000 C   0  0  0  0  0  0  0  0  0  0  0  0
    8.1181   -1.9176    0.0000 O   0  0  0  0  0  0  0  0  0  0  0  0
    7.9391   -3.3353    0.0000 C   0  0  0  0  0  0  0  0  0  0  0  0
    7.7984   -1.1570    0.0000 C   0  0  0  0  0  0  0  0  0  0  0  0
    7.4403   -3.9924    0.0000 C   0  0  0  0  0  0  0  0  0  0  0  0
    8.2912   -0.5241    0.0000 C   0  0  1  0  0  0  0  0  0  0  0  0
    7.7600   -4.7530    0.0000 C   0  0  0  0  0  0  0  0  0  0  0  0
    6.6218   -3.8891    0.0000 C   0  0  0  0  0  0  0  0  0  0  0  0
    7.1841   -0.3355    0.0000 C   0  0  2  0  0  0  0  0  0  0  0  0
    8.7972    0.1668    0.0000 C   0  0  2  0  0  0  0  0  0  0  0  0
    8.6327   -1.2535    0.0000 C   0  0  0  0  0  0  0  0  0  0  0  0
    7.2612   -5.4101    0.0000 C   0  0  0  0  0  0  0  0  0  0  0  0
    7.7361    0.2775    0.0000 C   0  0  1  0  0  0  0  0  0  0  0  0
    6.4304    0.0000    0.0000 C   0  0  2  0  0  0  0  0  0  0  0  0
    6.9539   -1.1278    0.0000 C   0  0  0  0  0  0  0  0  0  0  0  0
    8.4483    0.9437    0.0000 O   0  0  0  0  0  0  0  0  0  0  0  0
    9.6026    0.0813    0.0000 C   0  0  2  0  0  0  0  0  0  0  0  0
    9.4532   -1.3397    0.0000 C   0  0  0  0  0  0  0  0  0  0  0  0
    7.5810   -6.1707    0.0000 O   0  0  0  0  0  0  0  0  0  0  0  0
    8.3835   -0.1477    0.0000 O   0  0  0  0  0  0  0  0  0  0  0  0
    7.3236    0.9920    0.0000 C   0  0  2  0  0  0  0  0  0  0  0  0
    8.4187    0.5548    0.0000 C   0  0  0  0  0  0  0  0  0  0  0  0
    5.7159   -0.4125    0.0000 O   0  0  0  0  0  0  0  0  0  0  0  0
    6.5167    0.8205    0.0000 C   0  0  0  0  0  0  0  0  0  0  0  0
   10.4231   -0.0049    0.0000 O   0  0  0  0  0  0  0  0  0  0  0  0
    9.9382   -0.6723    0.0000 C   0  0  1  0  0  0  0  0  0  0  0  0
    5.0014    0.0000    0.0000 C   0  0  0  0  0  0  0  0  0  0  0  0
   10.6056   -1.1573    0.0000 C   0  0  0  0  0  0  0  0  0  0  0  0
    5.0014    0.8250    0.0000 O   0  0  0  0  0  0  0  0  0  0  0  0
    4.2870   -0.4125    0.0000 C   0  0  0  0  0  0  0  0  0  0  0  0
    3.5724    0.0000    0.0000 C   0  0  0  0  0  0  0  0  0  0  0  0
    3.5724    0.8250    0.0000 C   0  0  0  0  0  0  0  0  0  0  0  0
    2.8579    1.2375    0.0000 C   0  0  0  0  0  0  0  0  0  0  0  0
    2.8579    2.0625    0.0000 C   0  0  1  0  0  0  0  0  0  0  0  0
    3.5724    2.4751    0.0000 O   0  0  0  0  0  0  0  0  0  0  0  0
    2.1435    2.4751    0.0000 C   0  0  2  0  0  0  0  0  0  0  0  0
    1.4290    2.0625    0.0000 O   0  0  0  0  0  0  0  0  0  0  0  0
    2.1435    3.3001    0.0000 C   0  0  0  0  0  0  0  0  0  0  0  0
  1  2  2  0  0  0  0 
  2  3  1  0  0  0  0 
  2  4  1  0  0  0  0 
  3  5  1  0  0  0  0 
  4  6  2  0  0  0  0 
  7  5  1  1  0  0  0 
  6  8  1  0  0  0  0 
  6  9  1  0  0  0  0 
 10  7  1  0  0  0  0 
 11  7  1  0  0  0  0 
  7 12  1  0  0  0  0 
  8 13  1  0  0  0  0 
 14 10  1  0  0  0  0 
 15 10  1  0  0  0  0 
 10 16  1  6  0  0  0 
 11 17  1  6  0  0  0 
 18 11  1  0  0  0  0 
 12 19  1  0  0  0  0 
 13 20  1  0  0  0  0 
 14 21  1  6  0  0  0 
 22 14  1  0  0  0  0 
 14 23  1  0  0  0  0 
 15 24  1  6  0  0  0 
 15 25  1  0  0  0  0 
 18 26  1  6  0  0  0 
 27 18  1  0  0  0  0 
 24 28  1  0  0  0  0 
 27 29  1  0  0  0  0 
 28 30  2  0  0  0  0 
 28 31  1  0  0  0  0 
 31 32  2  0  0  0  0 
 32 33  1  0  0  0  0 
 33 34  2  0  0  0  0 
 35 34  1  0  0  0  0 
 35 36  1  6  0  0  0 
 37 35  1  0  0  0  0 
 37 38  1  6  0  0  0 
 37 39  1  0  0  0  0 
 22 17  1  1  0  0  0 
 19 27  1  0  0  0  0 
 21 23  1  0  0  0  0 
 22 25  1  0  0  0  0 
 27 26  1  6  0  0  0 
M  END
> <ID>
CHEBI:221849

> <NAME>
9beta,10beta-Epoxyisotrichoverrin A

$$$$

CDK     1030232202

 39 42  0  0  0  0  0  0  0  0999 V2000
    9.2881    0.8250    0.0000 O   0  0  0  0  0  0  0  0  0  0  0  0
    9.2881    0.0000    0.0000 C   0  0  0  0  0  0  0  0  0  0  0  0
   10.0026   -0.4125    0.0000 O   0  0  0  0  0  0  0  0  0  0  0  0
    8.5736   -0.4125    0.0000 C   0  0  0  0  0  0  0  0  0  0  0  0
   10.7171    0.0000    0.0000 C   0  0  0  0  0  0  0  0  0  0  0  0
    7.8592    0.0000    0.0000 C   0  0  0  0  0  0  0  0  0  0  0  0
   11.4068   -0.4096    0.0000 C   0  0  1  0  0  0  0  0  0  0  0  0
    7.1447   -0.4125    0.0000 C   0  0  0  0  0  0  0  0  0  0  0  0
    7.8592    0.8250    0.0000 C   0  0  0  0  0  0  0  0  0  0  0  0
   11.4550    0.7124    0.0000 C   0  0  2  0  0  0  0  0  0  0  0  0
   12.1556   -0.8250    0.0000 C   0  0  2  0  0  0  0  0  0  0  0  0
   10.7258   -0.8399    0.0000 C   0  0  0  0  0  0  0  0  0  0  0  0
    6.4302    0.0000    0.0000 C   0  0  0  0  0  0  0  0  0  0  0  0
   12.1325    0.2415    0.0000 C   0  0  1  0  0  0  0  0  0  0  0  0
   11.6936    1.5022    0.0000 C   0  0  2  0  0  0  0  0  0  0  0  0
   10.6402    0.8414    0.0000 C   0  0  0  0  0  0  0  0  0  0  0  0
   12.8826   -0.3815    0.0000 O   0  0  0  0  0  0  0  0  0  0  0  0
   12.1717   -1.6348    0.0000 C   0  0  0  0  0  0  0  0  0  0  0  0
   10.7431   -1.6647    0.0000 C   0  0  0  0  0  0  0  0  0  0  0  0
    5.7158   -0.4125    0.0000 O   0  0  0  0  0  0  0  0  0  0  0  0
   11.7917   -0.4541    0.0000 O   0  0  0  0  0  0  0  0  0  0  0  0
   12.7896    0.7403    0.0000 C   0  0  2  0  0  0  0  0  0  0  0  0
   12.4931   -0.4009    0.0000 C   0  0  0  0  0  0  0  0  0  0  0  0
   11.1948    2.1594    0.0000 O   0  0  0  0  0  0  0  0  0  0  0  0
   12.5184    1.5194    0.0000 C   0  0  0  0  0  0  0  0  0  0  0  0
   11.4660   -2.0622    0.0000 C   0  0  0  0  0  0  0  0  0  0  0  0
    5.0013    0.0000    0.0000 C   0  0  2  0  0  0  0  0  0  0  0  0
   11.4833   -2.8869    0.0000 C   0  0  0  0  0  0  0  0  0  0  0  0
    4.2869   -0.4125    0.0000 C   0  0  0  0  0  0  0  0  0  0  0  0
    5.0013    0.8250    0.0000 C   0  0  2  0  0  0  0  0  0  0  0  0
    3.5723    0.0000    0.0000 C   0  0  0  0  0  0  0  0  0  0  0  0
    5.7158    1.2375    0.0000 O   0  0  0  0  0  0  0  0  0  0  0  0
    4.2869    1.2375    0.0000 C   0  0  0  0  0  0  0  0  0  0  0  0
    2.8579   -0.4125    0.0000 C   0  0  0  0  0  0  0  0  0  0  0  0
    2.1434    0.0000    0.0000 C   0  0  0  0  0  0  0  0  0  0  0  0
    1.4290   -0.4125    0.0000 C   0  0  0  0  0  0  0  0  0  0  0  0
    1.4290   -1.2375    0.0000 O   0  0  0  0  0  0  0  0  0  0  0  0
    0.7144    0.0000    0.0000 O   0  0  0  0  0  0  0  0  0  0  0  0
    0.0000   -0.4125    0.0000 C   0  0  0  0  0  0  0  0  0  0  0  0
  1  2  2  0  0  0  0 
  2  3  1  0  0  0  0 
  2  4  1  0  0  0  0 
  3  5  1  0  0  0  0 
  4  6  2  0  0  0  0 
  7  5  1  1  0  0  0 
  6  8  1  0  0  0  0 
  6  9  1  0  0  0  0 
 10  7  1  0  0  0  0 
 11  7  1  0  0  0  0 
  7 12  1  0  0  0  0 
  8 13  1  0  0  0  0 
 14 10  1  0  0  0  0 
 15 10  1  0  0  0  0 
 10 16  1  6  0  0  0 
 11 17  1  6  0  0  0 
 11 18  1  0  0  0  0 
 12 19  1  0  0  0  0 
 13 20  1  0  0  0  0 
 14 21  1  6  0  0  0 
 22 14  1  0  0  0  0 
 14 23  1  0  0  0  0 
 15 24  1  6  0  0  0 
 15 25  1  0  0  0  0 
 18 26  2  0  0  0  0 
 27 20  1  6  0  0  0 
 26 28  1  0  0  0  0 
 27 29  1  0  0  0  0 
 30 27  1  0  0  0  0 
 29 31  2  0  0  0  0 
 30 32  1  1  0  0  0 
 30 33  1  0  0  0  0 
 31 34  1  0  0  0  0 
 34 35  2  0  0  0  0 
 35 36  1  0  0  0  0 
 36 37  2  0  0  0  0 
 36 38  1  0  0  0  0 
 38 39  1  0  0  0  0 
 22 17  1  1  0  0  0 
 19 26  1  0  0  0  0 
 21 23  1  0  0  0  0 
 22 25  1  0  0  0  0 
M  END
> <ID>
CHEBI:222910

> <NAME>
Roridin F

$$$$

CDK     1030232202

 39 43  0  0  0  0  0  0  0  0999 V2000
    3.5724    0.8250    0.0000 O   0  0  0  0  0  0  0  0  0  0  0  0
    3.5724    0.0000    0.0000 C   0  0  0  0  0  0  0  0  0  0  0  0
    4.2869   -0.4125    0.0000 O   0  0  0  0  0  0  0  0  0  0  0  0
    2.8579   -0.4125    0.0000 C   0  0  0  0  0  0  0  0  0  0  0  0
    5.0014    0.0000    0.0000 C   0  0  1  0  0  0  0  0  0  0  0  0
    2.1435    0.0000    0.0000 C   0  0  0  0  0  0  0  0  0  0  0  0
    5.7551   -0.3355    0.0000 C   0  0  2  0  0  0  0  0  0  0  0  0
    5.0876    0.8205    0.0000 C   0  0  0  0  0  0  0  0  0  0  0  0
    2.1435    0.8250    0.0000 C   0  0  0  0  0  0  0  0  0  0  0  0
    6.8622   -0.5241    0.0000 C   0  0  2  0  0  0  0  0  0  0  0  0
    6.3072    0.2775    0.0000 C   0  0  2  0  0  0  0  0  0  0  0  0
    5.5250   -1.1278    0.0000 C   0  0  0  0  0  0  0  0  0  0  0  0
    5.8947    0.9920    0.0000 C   0  0  2  0  0  0  0  0  0  0  0  0
    1.4290    1.2375    0.0000 C   0  0  0  0  0  0  0  0  0  0  0  0
    7.3682    0.1668    0.0000 C   0  0  2  0  0  0  0  0  0  0  0  0
    7.2037   -1.2535    0.0000 C   0  0  0  0  0  0  0  0  0  0  0  0
    6.3694   -1.1570    0.0000 C   0  0  0  0  0  0  0  0  0  0  0  0
    6.9546   -0.1477    0.0000 O   0  0  0  0  0  0  0  0  0  0  0  0
    6.9897    0.5548    0.0000 C   0  0  0  0  0  0  0  0  0  0  0  0
    7.0192    0.9437    0.0000 O   0  0  0  0  0  0  0  0  0  0  0  0
    1.4290    2.0625    0.0000 C   0  0  2  0  0  0  0  0  0  0  0  0
    8.1736    0.0813    0.0000 C   0  0  0  0  0  0  0  0  0  0  0  0
    8.0243   -1.3397    0.0000 C   0  0  0  0  0  0  0  0  0  0  0  0
    6.6891   -1.9176    0.0000 O   0  0  0  0  0  0  0  0  0  0  0  0
    2.1435    2.4750    0.0000 O   0  0  0  0  0  0  0  0  0  0  0  0
    0.7145    2.4750    0.0000 C   0  0  1  0  0  0  0  0  0  0  0  0
    0.7145    1.6500    0.0000 C   0  0  1  0  0  0  0  0  0  0  0  0
    8.5091   -0.6723    0.0000 C   0  0  0  0  0  0  0  0  0  0  0  0
    2.1435    3.3001    0.0000 C   0  0  0  0  0  0  0  0  0  0  0  0
    0.0671    2.2123    0.0000 O   0  0  0  0  0  0  0  0  0  0  0  0
    0.7145    3.3001    0.0000 C   0  0  0  0  0  0  0  0  0  0  0  0
   -0.2063    2.0625    0.0000 O   0  0  0  0  0  0  0  0  0  0  0  0
    0.7145    0.8250    0.0000 C   0  0  0  0  0  0  0  0  0  0  0  0
    9.3297   -0.7585    0.0000 C   0  0  0  0  0  0  0  0  0  0  0  0
    1.4290    3.7126    0.0000 C   0  0  0  0  0  0  0  0  0  0  0  0
    0.0000    3.7126    0.0000 C   0  0  0  0  0  0  0  0  0  0  0  0
    0.0000    4.5376    0.0000 C   0  0  0  0  0  0  0  0  0  0  0  0
    0.7145    4.9501    0.0000 O   0  0  0  0  0  0  0  0  0  0  0  0
   -0.7145    4.9501    0.0000 O   0  0  0  0  0  0  0  0  0  0  0  0
  1  2  2  0  0  0  0 
  2  3  1  0  0  0  0 
  2  4  1  0  0  0  0 
  5  3  1  6  0  0  0 
  4  6  2  0  0  0  0 
  7  5  1  0  0  0  0 
  5  8  1  0  0  0  0 
  6  9  1  0  0  0  0 
 10  7  1  0  0  0  0 
 11  7  1  0  0  0  0 
  7 12  1  6  0  0  0 
 13  8  1  0  0  0  0 
  9 14  2  0  0  0  0 
 15 10  1  0  0  0  0 
 10 16  1  0  0  0  0 
 10 17  1  1  0  0  0 
 11 18  1  6  0  0  0 
 11 19  1  0  0  0  0 
 13 20  1  1  0  0  0 
 21 14  1  0  0  0  0 
 15 22  1  0  0  0  0 
 16 23  1  0  0  0  0 
 17 24  1  0  0  0  0 
 21 25  1  0  0  0  0 
 26 21  1  0  0  0  0 
 21 27  1  6  0  0  0 
 22 28  2  0  0  0  0 
 25 29  1  0  0  0  0 
 26 30  1  1  0  0  0 
 26 31  1  0  0  0  0 
 27 32  1  6  0  0  0 
 27 33  1  0  0  0  0 
 28 34  1  0  0  0  0 
 29 35  1  0  0  0  0 
 31 36  2  0  0  0  0 
 36 37  1  0  0  0  0 
 37 38  2  0  0  0  0 
 37 39  1  0  0  0  0 
 11 13  1  0  0  0  0 
 15 20  1  6  0  0  0 
 18 19  1  0  0  0  0 
 23 28  1  0  0  0  0 
 31 35  1  0  0  0  0 
M  END
> <ID>
CHEBI:222917

> <NAME>
Satratoxin I

$$$$

CDK     1030232203

 22 25  0  0  0  0  0  0  0  0999 V2000
    5.5019   -2.0935    0.0000 O   0  0  0  0  0  0  0  0  0  0  0  0
    5.1663   -1.3397    0.0000 C   0  0  0  0  0  0  0  0  0  0  0  0
    5.6512   -0.6723    0.0000 C   0  0  0  0  0  0  0  0  0  0  0  0
    4.3458   -1.2535    0.0000 C   0  0  0  0  0  0  0  0  0  0  0  0
    5.3157    0.0813    0.0000 C   0  0  0  0  0  0  0  0  0  0  0  0
    6.4718   -0.7585    0.0000 C   0  0  0  0  0  0  0  0  0  0  0  0
    4.0043   -0.5241    0.0000 C   0  0  1  0  0  0  0  0  0  0  0  0
    4.5103    0.1668    0.0000 C   0  0  2  0  0  0  0  0  0  0  0  0
    2.8971   -0.3355    0.0000 C   0  0  2  0  0  0  0  0  0  0  0  0
    3.5114   -1.1570    0.0000 C   0  0  0  0  0  0  0  0  0  0  0  0
    4.1613    0.9437    0.0000 O   0  0  0  0  0  0  0  0  0  0  0  0
    3.4492    0.2775    0.0000 C   0  0  2  0  0  0  0  0  0  0  0  0
    2.1435    0.0000    0.0000 C   0  0  2  0  0  0  0  0  0  0  0  0
    2.6670   -1.1278    0.0000 C   0  0  0  0  0  0  0  0  0  0  0  0
    3.0367    0.9920    0.0000 C   0  0  1  0  0  0  0  0  0  0  0  0
    4.0966   -0.1477    0.0000 O   0  0  0  0  0  0  0  0  0  0  0  0
    4.1318    0.5548    0.0000 C   0  0  0  0  0  0  0  0  0  0  0  0
    1.4290   -0.4125    0.0000 O   0  0  0  0  0  0  0  0  0  0  0  0
    2.2297    0.8205    0.0000 C   0  0  0  0  0  0  0  0  0  0  0  0
    0.7145    0.0000    0.0000 C   0  0  0  0  0  0  0  0  0  0  0  0
    0.7145    0.8250    0.0000 O   0  0  0  0  0  0  0  0  0  0  0  0
    0.0000   -0.4125    0.0000 C   0  0  0  0  0  0  0  0  0  0  0  0
  1  2  2  0  0  0  0 
  2  3  1  0  0  0  0 
  2  4  1  0  0  0  0 
  3  5  2  0  0  0  0 
  3  6  1  0  0  0  0 
  7  4  1  0  0  0  0 
  8  5  1  0  0  0  0 
  9  7  1  0  0  0  0 
  7 10  1  1  0  0  0 
  8 11  1  6  0  0  0 
 12  9  1  0  0  0  0 
 13  9  1  0  0  0  0 
  9 14  1  6  0  0  0 
 15 11  1  1  0  0  0 
 12 16  1  6  0  0  0 
 12 17  1  0  0  0  0 
 13 18  1  6  0  0  0 
 13 19  1  0  0  0  0 
 18 20  1  0  0  0  0 
 20 21  2  0  0  0  0 
 20 22  1  0  0  0  0 
  7  8  1  0  0  0  0 
 12 15  1  0  0  0  0 
 15 19  1  0  0  0  0 
 16 17  1  0  0  0  0 
M  END
> <ID>
CHEBI:223048

> <NAME>
Acetyltrichothecolone

$$$$

CDK     1030232202

 22 25  0  0  0  0  0  0  0  0999 V2000
    2.1435    0.0000    0.0000 O   0  0  0  0  0  0  0  0  0  0  0  0
    1.4290   -0.4125    0.0000 C   0  0  0  0  0  0  0  0  0  0  0  0
    0.7145    0.0000    0.0000 O   0  0  0  0  0  0  0  0  0  0  0  0
    1.4290   -1.2375    0.0000 C   0  0  0  0  0  0  0  0  0  0  0  0
    0.0000   -0.4125    0.0000 C   0  0  1  0  0  0  0  0  0  0  0  0
   -0.7537   -0.0770    0.0000 C   0  0  2  0  0  0  0  0  0  0  0  0
   -0.0862   -1.2330    0.0000 C   0  0  1  0  0  0  0  0  0  0  0  0
   -1.8608    0.1115    0.0000 C   0  0  2  0  0  0  0  0  0  0  0  0
   -1.3058   -0.6900    0.0000 C   0  0  2  0  0  0  0  0  0  0  0  0
   -0.5236    0.7153    0.0000 C   0  0  0  0  0  0  0  0  0  0  0  0
    0.5269   -1.7851    0.0000 O   0  0  0  0  0  0  0  0  0  0  0  0
   -0.8932   -1.4045    0.0000 C   0  0  2  0  0  0  0  0  0  0  0  0
   -2.3668   -0.5793    0.0000 C   0  0  2  0  0  0  0  0  0  0  0  0
   -2.2024    0.8410    0.0000 C   0  0  0  0  0  0  0  0  0  0  0  0
   -1.3680    0.7445    0.0000 C   0  0  0  0  0  0  0  0  0  0  0  0
   -1.9531   -0.2648    0.0000 O   0  0  0  0  0  0  0  0  0  0  0  0
   -1.9884   -0.9673    0.0000 C   0  0  0  0  0  0  0  0  0  0  0  0
   -2.0178   -1.3562    0.0000 O   0  0  0  0  0  0  0  0  0  0  0  0
   -3.1722   -0.4939    0.0000 C   0  0  0  0  0  0  0  0  0  0  0  0
   -3.0229    0.9272    0.0000 C   0  0  0  0  0  0  0  0  0  0  0  0
   -3.5078    0.2598    0.0000 C   0  0  0  0  0  0  0  0  0  0  0  0
   -4.3283    0.3460    0.0000 C   0  0  0  0  0  0  0  0  0  0  0  0
  1  2  2  0  0  0  0 
  2  3  1  0  0  0  0 
  2  4  1  0  0  0  0 
  5  3  1  6  0  0  0 
  6  5  1  0  0  0  0 
  7  5  1  0  0  0  0 
  8  6  1  0  0  0  0 
  9  6  1  0  0  0  0 
  6 10  1  6  0  0  0 
  7 11  1  1  0  0  0 
 12  7  1  0  0  0  0 
 13  8  1  0  0  0  0 
  8 14  1  0  0  0  0 
  8 15  1  1  0  0  0 
  9 16  1  6  0  0  0 
  9 17  1  0  0  0  0 
 12 18  1  1  0  0  0 
 13 19  1  0  0  0  0 
 14 20  1  0  0  0  0 
 19 21  2  0  0  0  0 
 21 22  1  0  0  0  0 
  9 12  1  0  0  0  0 
 13 18  1  6  0  0  0 
 16 17  1  0  0  0  0 
 20 21  1  0  0  0  0 
M  END
> <ID>
CHEBI:223239

> <NAME>
Trichodermarin C

$$$$

CDK     1030232202

 22 25  0  0  0  0  0  0  0  0999 V2000
    2.1435    0.0000    0.0000 O   0  0  0  0  0  0  0  0  0  0  0  0
    1.4290   -0.4125    0.0000 C   0  0  0  0  0  0  0  0  0  0  0  0
    0.7145    0.0000    0.0000 O   0  0  0  0  0  0  0  0  0  0  0  0
    1.4290   -1.2375    0.0000 C   0  0  0  0  0  0  0  0  0  0  0  0
    0.0000   -0.4125    0.0000 C   0  0  1  0  0  0  0  0  0  0  0  0
   -0.7537   -0.0770    0.0000 C   0  0  2  0  0  0  0  0  0  0  0  0
   -0.0862   -1.2330    0.0000 C   0  0  0  0  0  0  0  0  0  0  0  0
   -1.8608    0.1115    0.0000 C   0  0  2  0  0  0  0  0  0  0  0  0
   -1.3058   -0.6900    0.0000 C   0  0  2  0  0  0  0  0  0  0  0  0
   -0.5236    0.7153    0.0000 C   0  0  0  0  0  0  0  0  0  0  0  0
   -0.8932   -1.4045    0.0000 C   0  0  2  0  0  0  0  0  0  0  0  0
   -2.3668   -0.5793    0.0000 C   0  0  2  0  0  0  0  0  0  0  0  0
   -2.2024    0.8410    0.0000 C   0  0  0  0  0  0  0  0  0  0  0  0
   -1.3680    0.7445    0.0000 C   0  0  0  0  0  0  0  0  0  0  0  0
   -1.9531   -0.2648    0.0000 O   0  0  0  0  0  0  0  0  0  0  0  0
   -1.9884   -0.9673    0.0000 C   0  0  0  0  0  0  0  0  0  0  0  0
   -2.0178   -1.3562    0.0000 O   0  0  0  0  0  0  0  0  0  0  0  0
   -3.1722   -0.4939    0.0000 C   0  0  0  0  0  0  0  0  0  0  0  0
   -3.0229    0.9272    0.0000 C   0  0  0  0  0  0  0  0  0  0  0  0
   -3.5078    0.2598    0.0000 C   0  0  1  0  0  0  0  0  0  0  0  0
   -4.3283    0.3460    0.0000 C   0  0  0  0  0  0  0  0  0  0  0  0
   -4.8132   -0.3214    0.0000 O   0  0  0  0  0  0  0  0  0  0  0  0
  1  2  2  0  0  0  0 
  2  3  1  0  0  0  0 
  2  4  1  0  0  0  0 
  5  3  1  6  0  0  0 
  6  5  1  0  0  0  0 
  5  7  1  0  0  0  0 
  8  6  1  0  0  0  0 
  9  6  1  0  0  0  0 
  6 10  1  6  0  0  0 
 11  7  1  0  0  0  0 
 12  8  1  0  0  0  0 
  8 13  1  0  0  0  0 
  8 14  1  1  0  0  0 
  9 15  1  6  0  0  0 
  9 16  1  0  0  0  0 
 11 17  1  1  0  0  0 
 12 18  1  0  0  0  0 
 13 19  1  0  0  0  0 
 20 18  1  0  0  0  0 
 20 21  1  6  0  0  0 
 21 22  1  0  0  0  0 
  9 11  1  0  0  0  0 
 12 17  1  6  0  0  0 
 15 16  1  0  0  0  0 
 19 20  1  0  0  0  0 
M  END
> <ID>
CHEBI:223246

> <NAME>
Trichodermarin D

$$$$

CDK     1030232202

 22 25  0  0  0  0  0  0  0  0999 V2000
    2.1435    0.0000    0.0000 O   0  0  0  0  0  0  0  0  0  0  0  0
    1.4290   -0.4125    0.0000 C   0  0  0  0  0  0  0  0  0  0  0  0
    0.7145    0.0000    0.0000 O   0  0  0  0  0  0  0  0  0  0  0  0
    1.4290   -1.2375    0.0000 C   0  0  0  0  0  0  0  0  0  0  0  0
    0.0000   -0.4125    0.0000 C   0  0  1  0  0  0  0  0  0  0  0  0
   -0.7537   -0.0770    0.0000 C   0  0  2  0  0  0  0  0  0  0  0  0
   -0.0862   -1.2330    0.0000 C   0  0  0  0  0  0  0  0  0  0  0  0
   -1.8608    0.1115    0.0000 C   0  0  2  0  0  0  0  0  0  0  0  0
   -1.3058   -0.6900    0.0000 C   0  0  2  0  0  0  0  0  0  0  0  0
   -0.5236    0.7153    0.0000 C   0  0  0  0  0  0  0  0  0  0  0  0
   -0.8932   -1.4045    0.0000 C   0  0  2  0  0  0  0  0  0  0  0  0
   -2.3668   -0.5793    0.0000 C   0  0  2  0  0  0  0  0  0  0  0  0
   -2.2024    0.8410    0.0000 C   0  0  0  0  0  0  0  0  0  0  0  0
   -1.3680    0.7445    0.0000 C   0  0  0  0  0  0  0  0  0  0  0  0
   -1.9531   -0.2648    0.0000 O   0  0  0  0  0  0  0  0  0  0  0  0
   -1.9884   -0.9673    0.0000 C   0  0  0  0  0  0  0  0  0  0  0  0
   -2.0178   -1.3562    0.0000 O   0  0  0  0  0  0  0  0  0  0  0  0
   -3.1722   -0.4939    0.0000 C   0  0  0  0  0  0  0  0  0  0  0  0
   -3.0229    0.9272    0.0000 C   0  0  0  0  0  0  0  0  0  0  0  0
   -3.5078    0.2598    0.0000 C   0  0  2  0  0  0  0  0  0  0  0  0
   -4.3283    0.3460    0.0000 C   0  0  0  0  0  0  0  0  0  0  0  0
   -4.8132   -0.3214    0.0000 O   0  0  0  0  0  0  0  0  0  0  0  0
  1  2  2  0  0  0  0 
  2  3  1  0  0  0  0 
  2  4  1  0  0  0  0 
  5  3  1  6  0  0  0 
  6  5  1  0  0  0  0 
  5  7  1  0  0  0  0 
  8  6  1  0  0  0  0 
  9  6  1  0  0  0  0 
  6 10  1  6  0  0  0 
 11  7  1  0  0  0  0 
 12  8  1  0  0  0  0 
  8 13  1  0  0  0  0 
  8 14  1  1  0  0  0 
  9 15  1  6  0  0  0 
  9 16  1  0  0  0  0 
 11 17  1  1  0  0  0 
 12 18  1  0  0  0  0 
 13 19  1  0  0  0  0 
 20 18  1  0  0  0  0 
 20 21  1  1  0  0  0 
 21 22  1  0  0  0  0 
  9 11  1  0  0  0  0 
 12 17  1  6  0  0  0 
 15 16  1  0  0  0  0 
 19 20  1  0  0  0  0 
M  END
> <ID>
CHEBI:223253

> <NAME>
Trichodermarin E

$$$$

CDK     1030232203

 40 44  0  0  0  0  0  0  0  0999 V2000
    3.5723   -4.9500    0.0000 O   0  0  0  0  0  0  0  0  0  0  0  0
    3.5723   -4.1250    0.0000 C   0  0  0  0  0  0  0  0  0  0  0  0
    4.2868   -3.7125    0.0000 O   0  0  0  0  0  0  0  0  0  0  0  0
    2.8579   -3.7125    0.0000 C   0  0  0  0  0  0  0  0  0  0  0  0
    5.0336   -4.2099    0.0000 C   0  0  0  0  0  0  0  0  0  0  0  0
    2.8579   -2.8875    0.0000 C   0  0  0  0  0  0  0  0  0  0  0  0
    5.4873   -3.9291    0.0000 C   0  0  1  0  0  0  0  0  0  0  0  0
    2.1434   -2.4750    0.0000 C   0  0  0  0  0  0  0  0  0  0  0  0
    3.5723   -2.4750    0.0000 C   0  0  0  0  0  0  0  0  0  0  0  0
    5.9259   -2.8952    0.0000 C   0  0  2  0  0  0  0  0  0  0  0  0
    6.0430   -4.5807    0.0000 C   0  0  2  0  0  0  0  0  0  0  0  0
    4.6358   -4.1530    0.0000 C   0  0  0  0  0  0  0  0  0  0  0  0
    2.1434   -1.6500    0.0000 C   0  0  0  0  0  0  0  0  0  0  0  0
    6.3953   -3.5737    0.0000 C   0  0  1  0  0  0  0  0  0  0  0  0
    6.4262   -2.2392    0.0000 C   0  0  2  0  0  0  0  0  0  0  0  0
    5.2081   -2.4887    0.0000 C   0  0  0  0  0  0  0  0  0  0  0  0
    6.8794   -4.4202    0.0000 O   0  0  0  0  0  0  0  0  0  0  0  0
    5.7742   -5.3447    0.0000 C   0  0  0  0  0  0  0  0  0  0  0  0
    4.4258   -4.8718    0.0000 C   0  0  0  0  0  0  0  0  0  0  0  0
    2.8579   -1.2375    0.0000 O   0  0  0  0  0  0  0  0  0  0  0  0
    5.8323   -4.1057    0.0000 O   0  0  0  0  0  0  0  0  0  0  0  0
    7.1856   -3.3370    0.0000 C   0  0  2  0  0  0  0  0  0  0  0  0
    6.5077   -4.3018    0.0000 C   0  0  0  0  0  0  0  0  0  0  0  0
    6.4302   -1.6500    0.0000 O   0  0  0  0  0  0  0  0  0  0  0  0
    7.2047   -2.5122    0.0000 C   0  0  0  0  0  0  0  0  0  0  0  0
    4.9635   -5.4975    0.0000 C   0  0  0  0  0  0  0  0  0  0  0  0
    2.8579   -0.4125    0.0000 C   0  0  2  0  0  0  0  0  0  0  0  0
    5.7157   -1.2375    0.0000 C   0  0  0  0  0  0  0  0  0  0  0  0
    4.6905   -6.2760    0.0000 C   0  0  0  0  0  0  0  0  0  0  0  0
    3.5723    0.0000    0.0000 C   0  0  0  0  0  0  0  0  0  0  0  0
    2.1434    0.0000    0.0000 C   0  0  2  0  0  0  0  0  0  0  0  0
    5.0013   -1.6500    0.0000 O   0  0  0  0  0  0  0  0  0  0  0  0
    5.7157   -0.4125    0.0000 C   0  0  0  0  0  0  0  0  0  0  0  0
    4.2868   -0.4125    0.0000 C   0  0  0  0  0  0  0  0  0  0  0  0
    1.4289   -0.4125    0.0000 O   0  0  0  0  0  0  0  0  0  0  0  0
    2.1434    0.8250    0.0000 C   0  0  0  0  0  0  0  0  0  0  0  0
    5.0013    0.0000    0.0000 C   0  0  0  0  0  0  0  0  0  0  0  0
    0.7145    0.0000    0.0000 C   0  0  0  0  0  0  0  0  0  0  0  0
    0.7145    0.8250    0.0000 O   0  0  0  0  0  0  0  0  0  0  0  0
    0.0000   -0.4125    0.0000 C   0  0  0  0  0  0  0  0  0  0  0  0
  1  2  2  0  0  0  0 
  2  3  1  0  0  0  0 
  2  4  1  0  0  0  0 
  3  5  1  0  0  0  0 
  4  6  2  0  0  0  0 
  7  5  1  1  0  0  0 
  6  8  1  0  0  0  0 
  6  9  1  0  0  0  0 
 10  7  1  0  0  0  0 
 11  7  1  0  0  0  0 
  7 12  1  0  0  0  0 
  8 13  1  0  0  0  0 
 14 10  1  0  0  0  0 
 15 10  1  0  0  0  0 
 10 16  1  6  0  0  0 
 11 17  1  6  0  0  0 
 11 18  1  0  0  0  0 
 12 19  1  0  0  0  0 
 13 20  1  0  0  0  0 
 14 21  1  6  0  0  0 
 22 14  1  0  0  0  0 
 14 23  1  0  0  0  0 
 15 24  1  6  0  0  0 
 15 25  1  0  0  0  0 
 18 26  2  0  0  0  0 
 27 20  1  1  0  0  0 
 24 28  1  0  0  0  0 
 26 29  1  0  0  0  0 
 27 30  1  0  0  0  0 
 31 27  1  0  0  0  0 
 28 32  2  0  0  0  0 
 28 33  1  0  0  0  0 
 30 34  2  0  0  0  0 
 31 35  1  6  0  0  0 
 31 36  1  0  0  0  0 
 33 37  2  0  0  0  0 
 35 38  1  0  0  0  0 
 38 39  2  0  0  0  0 
 38 40  1  0  0  0  0 
 22 17  1  1  0  0  0 
 19 26  1  0  0  0  0 
 21 23  1  0  0  0  0 
 22 25  1  0  0  0  0 
 34 37  1  0  0  0  0 
M  END
> <ID>
CHEBI:223371

> <NAME>
Roridin E acetate

$$$$

CDK     1030232203

 27 30  0  0  0  0  0  0  0  0999 V2000
    4.2869   -1.2375    0.0000 O   0  0  0  0  0  0  0  0  0  0  0  0
    4.2869   -0.4125    0.0000 C   0  0  0  0  0  0  0  0  0  0  0  0
    5.0014    0.0000    0.0000 O   0  0  0  0  0  0  0  0  0  0  0  0
    3.5724    0.0000    0.0000 C   0  0  0  0  0  0  0  0  0  0  0  0
    5.7159   -0.4125    0.0000 C   0  0  1  0  0  0  0  0  0  0  0  0
    2.8579   -0.4125    0.0000 C   0  0  0  0  0  0  0  0  0  0  0  0
    5.8021   -1.2330    0.0000 C   0  0  2  0  0  0  0  0  0  0  0  0
    6.4695   -0.0770    0.0000 C   0  0  1  0  0  0  0  0  0  0  0  0
    2.8579   -1.2375    0.0000 C   0  0  0  0  0  0  0  0  0  0  0  0
    6.1924   -2.2861    0.0000 C   0  0  2  0  0  0  0  0  0  0  0  0
    6.6091   -1.4045    0.0000 C   0  0  2  0  0  0  0  0  0  0  0  0
    5.0009   -1.4298    0.0000 C   0  0  0  0  0  0  0  0  0  0  0  0
    6.6411    0.7301    0.0000 O   0  0  0  0  0  0  0  0  0  0  0  0
    7.0216   -0.6900    0.0000 C   0  0  2  0  0  0  0  0  0  0  0  0
    2.1435   -1.6500    0.0000 C   0  0  0  0  0  0  0  0  0  0  0  0
    7.0437   -2.3788    0.0000 C   0  0  2  0  0  0  0  0  0  0  0  0
    5.7315   -2.9465    0.0000 C   0  0  0  0  0  0  0  0  0  0  0  0
    5.3978   -2.1757    0.0000 C   0  0  0  0  0  0  0  0  0  0  0  0
    6.5646   -2.1778    0.0000 O   0  0  0  0  0  0  0  0  0  0  0  0
    7.1905   -1.8570    0.0000 C   0  0  0  0  0  0  0  0  0  0  0  0
    7.5420   -1.6881    0.0000 O   0  0  0  0  0  0  0  0  0  0  0  0
    2.1435   -2.4750    0.0000 C   0  0  0  0  0  0  0  0  0  0  0  0
    7.3724   -3.1190    0.0000 C   0  0  0  0  0  0  0  0  0  0  0  0
    6.0670   -3.7003    0.0000 C   0  0  0  0  0  0  0  0  0  0  0  0
    1.4290   -2.8876    0.0000 O   0  0  0  0  0  0  0  0  0  0  0  0
    6.8875   -3.7865    0.0000 C   0  0  0  0  0  0  0  0  0  0  0  0
    7.2231   -4.5401    0.0000 C   0  0  0  0  0  0  0  0  0  0  0  0
  1  2  2  0  0  0  0 
  2  3  1  0  0  0  0 
  2  4  1  0  0  0  0 
  5  3  1  6  0  0  0 
  4  6  2  0  0  0  0 
  7  5  1  0  0  0  0 
  8  5  1  0  0  0  0 
  6  9  1  0  0  0  0 
 10  7  1  0  0  0  0 
 11  7  1  0  0  0  0 
  7 12  1  6  0  0  0 
  8 13  1  1  0  0  0 
 14  8  1  0  0  0  0 
  9 15  2  0  0  0  0 
 16 10  1  0  0  0  0 
 10 17  1  0  0  0  0 
 10 18  1  1  0  0  0 
 11 19  1  6  0  0  0 
 11 20  1  0  0  0  0 
 14 21  1  1  0  0  0 
 15 22  1  0  0  0  0 
 16 23  1  0  0  0  0 
 17 24  1  0  0  0  0 
 22 25  1  0  0  0  0 
 23 26  2  0  0  0  0 
 26 27  1  0  0  0  0 
 11 14  1  0  0  0  0 
 16 21  1  6  0  0  0 
 19 20  1  0  0  0  0 
 24 26  1  0  0  0  0 
M  END
> <ID>
CHEBI:223544

> <NAME>
Trichobreol C

$$$$

CDK     1030232203

 26 29  0  0  0  0  0  0  0  0999 V2000
    3.5724    0.8250    0.0000 O   0  0  0  0  0  0  0  0  0  0  0  0
    3.5724    0.0000    0.0000 C   0  0  0  0  0  0  0  0  0  0  0  0
    4.2870   -0.4125    0.0000 O   0  0  0  0  0  0  0  0  0  0  0  0
    2.8579   -0.4125    0.0000 C   0  0  0  0  0  0  0  0  0  0  0  0
    5.0014    0.0000    0.0000 C   0  0  1  0  0  0  0  0  0  0  0  0
    2.1435    0.0000    0.0000 C   0  0  0  0  0  0  0  0  0  0  0  0
    5.7551   -0.3355    0.0000 C   0  0  2  0  0  0  0  0  0  0  0  0
    5.0876    0.8205    0.0000 C   0  0  1  0  0  0  0  0  0  0  0  0
    2.1435    0.8250    0.0000 C   0  0  0  0  0  0  0  0  0  0  0  0
    6.8623   -0.5241    0.0000 C   0  0  2  0  0  0  0  0  0  0  0  0
    6.3072    0.2775    0.0000 C   0  0  2  0  0  0  0  0  0  0  0  0
    5.5250   -1.1278    0.0000 C   0  0  0  0  0  0  0  0  0  0  0  0
    4.4746    1.3726    0.0000 O   0  0  0  0  0  0  0  0  0  0  0  0
    5.8947    0.9920    0.0000 C   0  0  2  0  0  0  0  0  0  0  0  0
    1.4290    1.2375    0.0000 C   0  0  0  0  0  0  0  0  0  0  0  0
    7.3682    0.1668    0.0000 C   0  0  2  0  0  0  0  0  0  0  0  0
    7.2037   -1.2535    0.0000 C   0  0  0  0  0  0  0  0  0  0  0  0
    6.3694   -1.1570    0.0000 C   0  0  0  0  0  0  0  0  0  0  0  0
    6.9546   -0.1477    0.0000 O   0  0  0  0  0  0  0  0  0  0  0  0
    6.9897    0.5548    0.0000 C   0  0  0  0  0  0  0  0  0  0  0  0
    7.0193    0.9437    0.0000 O   0  0  0  0  0  0  0  0  0  0  0  0
    1.4290    2.0625    0.0000 C   0  0  0  0  0  0  0  0  0  0  0  0
    8.1736    0.0813    0.0000 C   0  0  0  0  0  0  0  0  0  0  0  0
    8.0243   -1.3397    0.0000 C   0  0  0  0  0  0  0  0  0  0  0  0
    8.5092   -0.6723    0.0000 C   0  0  0  0  0  0  0  0  0  0  0  0
    9.3297   -0.7585    0.0000 C   0  0  0  0  0  0  0  0  0  0  0  0
  1  2  2  0  0  0  0 
  2  3  1  0  0  0  0 
  2  4  1  0  0  0  0 
  5  3  1  6  0  0  0 
  4  6  2  0  0  0  0 
  7  5  1  0  0  0  0 
  8  5  1  0  0  0  0 
  6  9  1  0  0  0  0 
 10  7  1  0  0  0  0 
 11  7  1  0  0  0  0 
  7 12  1  6  0  0  0 
  8 13  1  1  0  0  0 
 14  8  1  0  0  0  0 
  9 15  2  0  0  0  0 
 16 10  1  0  0  0  0 
 10 17  1  0  0  0  0 
 10 18  1  1  0  0  0 
 11 19  1  6  0  0  0 
 11 20  1  0  0  0  0 
 14 21  1  1  0  0  0 
 15 22  1  0  0  0  0 
 16 23  1  0  0  0  0 
 17 24  1  0  0  0  0 
 23 25  2  0  0  0  0 
 25 26  1  0  0  0  0 
 11 14  1  0  0  0  0 
 16 21  1  6  0  0  0 
 19 20  1  0  0  0  0 
 24 25  1  0  0  0  0 
M  END
> <ID>
CHEBI:223559

> <NAME>
Trichobreol A

$$$$

CDK     1030232203

 27 30  0  0  0  0  0  0  0  0999 V2000
    3.5724    0.8250    0.0000 O   0  0  0  0  0  0  0  0  0  0  0  0
    3.5724    0.0000    0.0000 C   0  0  0  0  0  0  0  0  0  0  0  0
    4.2870   -0.4125    0.0000 O   0  0  0  0  0  0  0  0  0  0  0  0
    2.8579   -0.4125    0.0000 C   0  0  0  0  0  0  0  0  0  0  0  0
    5.0014    0.0000    0.0000 C   0  0  1  0  0  0  0  0  0  0  0  0
    2.1435    0.0000    0.0000 C   0  0  0  0  0  0  0  0  0  0  0  0
    5.7551   -0.3355    0.0000 C   0  0  2  0  0  0  0  0  0  0  0  0
    5.0876    0.8205    0.0000 C   0  0  1  0  0  0  0  0  0  0  0  0
    2.1435    0.8250    0.0000 C   0  0  0  0  0  0  0  0  0  0  0  0
    6.8623   -0.5241    0.0000 C   0  0  2  0  0  0  0  0  0  0  0  0
    6.3072    0.2775    0.0000 C   0  0  2  0  0  0  0  0  0  0  0  0
    5.5250   -1.1278    0.0000 C   0  0  0  0  0  0  0  0  0  0  0  0
    4.4746    1.3726    0.0000 O   0  0  0  0  0  0  0  0  0  0  0  0
    5.8947    0.9920    0.0000 C   0  0  2  0  0  0  0  0  0  0  0  0
    1.4290    1.2375    0.0000 C   0  0  0  0  0  0  0  0  0  0  0  0
    7.3682    0.1668    0.0000 C   0  0  2  0  0  0  0  0  0  0  0  0
    7.2037   -1.2535    0.0000 C   0  0  0  0  0  0  0  0  0  0  0  0
    6.3694   -1.1570    0.0000 C   0  0  0  0  0  0  0  0  0  0  0  0
    6.9546   -0.1477    0.0000 O   0  0  0  0  0  0  0  0  0  0  0  0
    6.9897    0.5548    0.0000 C   0  0  0  0  0  0  0  0  0  0  0  0
    7.0193    0.9437    0.0000 O   0  0  0  0  0  0  0  0  0  0  0  0
    1.4290    2.0625    0.0000 C   0  0  0  0  0  0  0  0  0  0  0  0
    8.1736    0.0813    0.0000 C   0  0  0  0  0  0  0  0  0  0  0  0
    8.0243   -1.3397    0.0000 C   0  0  0  0  0  0  0  0  0  0  0  0
    8.5092   -0.6723    0.0000 C   0  0  0  0  0  0  0  0  0  0  0  0
    9.3297   -0.7585    0.0000 C   0  0  0  0  0  0  0  0  0  0  0  0
    9.8146   -0.0911    0.0000 O   0  0  0  0  0  0  0  0  0  0  0  0
  1  2  2  0  0  0  0 
  2  3  1  0  0  0  0 
  2  4  1  0  0  0  0 
  5  3  1  6  0  0  0 
  4  6  2  0  0  0  0 
  7  5  1  0  0  0  0 
  8  5  1  0  0  0  0 
  6  9  1  0  0  0  0 
 10  7  1  0  0  0  0 
 11  7  1  0  0  0  0 
  7 12  1  6  0  0  0 
  8 13  1  1  0  0  0 
 14  8  1  0  0  0  0 
  9 15  2  0  0  0  0 
 16 10  1  0  0  0  0 
 10 17  1  0  0  0  0 
 10 18  1  1  0  0  0 
 11 19  1  6  0  0  0 
 11 20  1  0  0  0  0 
 14 21  1  1  0  0  0 
 15 22  1  0  0  0  0 
 16 23  1  0  0  0  0 
 17 24  1  0  0  0  0 
 23 25  2  0  0  0  0 
 25 26  1  0  0  0  0 
 26 27  1  0  0  0  0 
 11 14  1  0  0  0  0 
 16 21  1  6  0  0  0 
 19 20  1  0  0  0  0 
 24 25  1  0  0  0  0 
M  END
> <ID>
CHEBI:223564

> <NAME>
Trichobreol B

$$$$

CDK     1030232203

 39 44  0  0  0  0  0  0  0  0999 V2000
    3.5153   -0.9103    0.0000 O   0  0  0  0  0  0  0  0  0  0  0  0
    3.5724   -1.6500    0.0000 C   0  0  0  0  0  0  0  0  0  0  0  0
    4.2868   -2.0625    0.0000 O   0  0  0  0  0  0  0  0  0  0  0  0
    2.8579   -2.0625    0.0000 C   0  0  0  0  0  0  0  0  0  0  0  0
    5.0910   -1.6645    0.0000 C   0  0  0  0  0  0  0  0  0  0  0  0
    2.1434   -1.6500    0.0000 C   0  0  0  0  0  0  0  0  0  0  0  0
    5.0747   -1.1311    0.0000 C   0  0  1  0  0  0  0  0  0  0  0  0
    2.1434   -0.8250    0.0000 C   0  0  1  0  0  0  0  0  0  0  0  0
    1.4290   -2.0625    0.0000 C   0  0  0  0  0  0  0  0  0  0  0  0
    4.3986   -0.2343    0.0000 C   0  0  1  0  0  0  0  0  0  0  0  0
    5.9168   -0.9757    0.0000 C   0  0  2  0  0  0  0  0  0  0  0  0
    4.8428   -1.9805    0.0000 C   0  0  0  0  0  0  0  0  0  0  0  0
    2.8579   -0.4125    0.0000 O   0  0  0  0  0  0  0  0  0  0  0  0
    1.4290   -0.4125    0.0000 C   0  0  2  0  0  0  0  0  0  0  0  0
    0.7145   -1.6500    0.0000 C   0  0  0  0  0  0  0  0  0  0  0  0
    5.2209   -0.1671    0.0000 C   0  0  2  0  0  0  0  0  0  0  0  0
    4.0806    0.5269    0.0000 C   0  0  2  0  0  0  0  0  0  0  0  0
    3.7162   -0.6101    0.0000 C   0  0  0  0  0  0  0  0  0  0  0  0
    6.1960   -0.1711    0.0000 O   0  0  0  0  0  0  0  0  0  0  0  0
    6.4441   -1.5904    0.0000 C   0  0  0  0  0  0  0  0  0  0  0  0
    5.3603   -2.5218    0.0000 C   0  0  0  0  0  0  0  0  0  0  0  0
    0.7145   -0.8250    0.0000 O   0  0  0  0  0  0  0  0  0  0  0  0
    0.7145    0.0000    0.0000 C   0  0  0  0  0  0  0  0  0  0  0  0
    1.4290    0.4125    0.0000 C   0  0  0  0  0  0  0  0  0  0  0  0
    5.4001   -0.9207    0.0000 O   0  0  0  0  0  0  0  0  0  0  0  0
    5.4111    0.6357    0.0000 C   0  0  2  0  0  0  0  0  0  0  0  0
    5.9077   -0.4337    0.0000 C   0  0  0  0  0  0  0  0  0  0  0  0
    3.5724    0.8250    0.0000 O   0  0  0  0  0  0  0  0  0  0  0  0
    4.7063    1.0646    0.0000 C   0  0  0  0  0  0  0  0  0  0  0  0
    6.1710   -2.3690    0.0000 C   0  0  0  0  0  0  0  0  0  0  0  0
    0.7145    0.8250    0.0000 O   0  0  0  0  0  0  0  0  0  0  0  0
    0.0000   -0.4125    0.0000 C   0  0  0  0  0  0  0  0  0  0  0  0
    2.1434    0.8250    0.0000 C   0  0  0  0  0  0  0  0  0  0  0  0
    3.5724    1.6500    0.0000 C   0  0  0  0  0  0  0  0  0  0  0  0
    6.7087   -2.9947    0.0000 C   0  0  0  0  0  0  0  0  0  0  0  0
    2.1434    1.6500    0.0000 C   0  0  0  0  0  0  0  0  0  0  0  0
    4.2868    2.0625    0.0000 O   0  0  0  0  0  0  0  0  0  0  0  0
    2.8579    2.0625    0.0000 C   0  0  0  0  0  0  0  0  0  0  0  0
    7.5195   -2.8419    0.0000 O   0  0  0  0  0  0  0  0  0  0  0  0
  1  2  2  0  0  0  0 
  2  3  1  0  0  0  0 
  2  4  1  0  0  0  0 
  3  5  1  0  0  0  0 
  4  6  2  0  0  0  0 
  7  5  1  1  0  0  0 
  8  6  1  0  0  0  0 
  6  9  1  0  0  0  0 
 10  7  1  0  0  0  0 
 11  7  1  0  0  0  0 
  7 12  1  0  0  0  0 
  8 13  1  6  0  0  0 
 14  8  1  0  0  0  0 
  9 15  1  0  0  0  0 
 16 10  1  0  0  0  0 
 17 10  1  0  0  0  0 
 10 18  1  1  0  0  0 
 11 19  1  6  0  0  0 
 11 20  1  0  0  0  0 
 12 21  1  0  0  0  0 
 14 22  1  0  0  0  0 
 14 23  1  6  0  0  0 
 14 24  1  0  0  0  0 
 16 25  1  1  0  0  0 
 26 16  1  0  0  0  0 
 16 27  1  0  0  0  0 
 17 28  1  6  0  0  0 
 17 29  1  0  0  0  0 
 20 30  2  0  0  0  0 
 23 31  2  0  0  0  0 
 23 32  1  0  0  0  0 
 24 33  1  0  0  0  0 
 28 34  1  0  0  0  0 
 30 35  1  0  0  0  0 
 33 36  1  0  0  0  0 
 34 37  2  0  0  0  0 
 34 38  1  0  0  0  0 
 35 39  1  0  0  0  0 
 15 22  1  0  0  0  0 
 26 19  1  1  0  0  0 
 21 30  1  0  0  0  0 
 25 27  1  0  0  0  0 
 26 29  1  0  0  0  0 
 36 38  2  0  0  0  0 
M  END
> <ID>
CHEBI:224160

> <NAME>
16-hydroxymytoxin B

$$$$

CDK     1030232203

 40 46  0  0  0  0  0  0  0  0999 V2000
    4.4179   -0.9101    0.0000 O   0  0  0  0  0  0  0  0  0  0  0  0
    4.1192   -0.2309    0.0000 C   0  0  0  0  0  0  0  0  0  0  0  0
    3.3085   -0.0782    0.0000 O   0  0  0  0  0  0  0  0  0  0  0  0
    4.6569    0.3947    0.0000 C   0  0  0  0  0  0  0  0  0  0  0  0
    2.6813   -0.7199    0.0000 C   0  0  0  0  0  0  0  0  0  0  0  0
    5.4676    0.2420    0.0000 C   0  0  0  0  0  0  0  0  0  0  0  0
    2.8732   -1.2178    0.0000 C   0  0  1  0  0  0  0  0  0  0  0  0
    5.7407   -0.5366    0.0000 C   0  0  1  0  0  0  0  0  0  0  0  0
    6.0054    0.8676    0.0000 C   0  0  0  0  0  0  0  0  0  0  0  0
    3.8079   -1.8403    0.0000 C   0  0  1  0  0  0  0  0  0  0  0  0
    2.1147   -1.6313    0.0000 C   0  0  2  0  0  0  0  0  0  0  0  0
    2.8110   -0.3395    0.0000 C   0  0  0  0  0  0  0  0  0  0  0  0
    5.3448   -1.2604    0.0000 O   0  0  0  0  0  0  0  0  0  0  0  0
    6.5514   -0.6894    0.0000 C   0  0  2  0  0  0  0  0  0  0  0  0
    6.8161    0.7148    0.0000 C   0  0  0  0  0  0  0  0  0  0  0  0
    3.0543   -2.1759    0.0000 C   0  0  2  0  0  0  0  0  0  0  0  0
    4.3600   -2.4534    0.0000 C   0  0  2  0  0  0  0  0  0  0  0  0
    4.3276   -1.2599    0.0000 C   0  0  0  0  0  0  0  0  0  0  0  0
    2.1365   -2.4994    0.0000 O   0  0  0  0  0  0  0  0  0  0  0  0
    1.4289   -1.2375    0.0000 C   0  0  0  0  0  0  0  0  0  0  0  0
    2.1434    0.0000    0.0000 C   0  0  0  0  0  0  0  0  0  0  0  0
    5.9109   -1.8606    0.0000 C   0  0  0  0  0  0  0  0  0  0  0  0
    7.0891   -0.0637    0.0000 O   0  0  0  0  0  0  0  0  0  0  0  0
    6.5757   -1.4711    0.0000 C   0  0  2  0  0  0  0  0  0  0  0  0
    6.9270   -1.4101    0.0000 C   0  0  0  0  0  0  0  0  0  0  0  0
    2.6358   -1.5241    0.0000 O   0  0  0  0  0  0  0  0  0  0  0  0
    3.1405   -2.9964    0.0000 C   0  0  2  0  0  0  0  0  0  0  0  0
    2.2432   -2.1272    0.0000 C   0  0  0  0  0  0  0  0  0  0  0  0
    4.9383   -2.5665    0.0000 O   0  0  0  0  0  0  0  0  0  0  0  0
    3.9475   -3.1679    0.0000 C   0  0  0  0  0  0  0  0  0  0  0  0
    1.4289   -0.4125    0.0000 C   0  0  0  0  0  0  0  0  0  0  0  0
    5.7581   -2.6713    0.0000 O   0  0  0  0  0  0  0  0  0  0  0  0
    7.3804   -1.9035    0.0000 O   0  0  0  0  0  0  0  0  0  0  0  0
    6.2911   -2.1029    0.0000 C   0  0  0  0  0  0  0  0  0  0  0  0
    5.2113   -3.3450    0.0000 C   0  0  0  0  0  0  0  0  0  0  0  0
    0.7145    0.0000    0.0000 C   0  0  0  0  0  0  0  0  0  0  0  0
    6.5597   -2.8722    0.0000 C   0  0  0  0  0  0  0  0  0  0  0  0
    4.6736   -3.9708    0.0000 O   0  0  0  0  0  0  0  0  0  0  0  0
    6.0221   -3.4978    0.0000 C   0  0  0  0  0  0  0  0  0  0  0  0
    0.0000   -0.4125    0.0000 O   0  0  0  0  0  0  0  0  0  0  0  0
  1  2  2  0  0  0  0 
  2  3  1  0  0  0  0 
  2  4  1  0  0  0  0 
  3  5  1  0  0  0  0 
  4  6  2  0  0  0  0 
  7  5  1  1  0  0  0 
  8  6  1  0  0  0  0 
  6  9  1  0  0  0  0 
 10  7  1  0  0  0  0 
 11  7  1  0  0  0  0 
  7 12  1  0  0  0  0 
  8 13  1  6  0  0  0 
 14  8  1  0  0  0  0 
  9 15  1  0  0  0  0 
 16 10  1  0  0  0  0 
 17 10  1  0  0  0  0 
 10 18  1  1  0  0  0 
 11 19  1  6  0  0  0 
 11 20  1  0  0  0  0 
 12 21  1  0  0  0  0 
 13 22  1  0  0  0  0 
 14 23  1  6  0  0  0 
 24 14  1  0  0  0  0 
 14 25  1  0  0  0  0 
 16 26  1  1  0  0  0 
 27 16  1  0  0  0  0 
 16 28  1  0  0  0  0 
 17 29  1  6  0  0  0 
 17 30  1  0  0  0  0 
 20 31  2  0  0  0  0 
 22 32  2  0  0  0  0 
 24 33  1  1  0  0  0 
 25 34  1  0  0  0  0 
 29 35  1  0  0  0  0 
 31 36  1  0  0  0  0 
 34 37  1  0  0  0  0 
 35 38  2  0  0  0  0 
 35 39  1  0  0  0  0 
 36 40  1  0  0  0  0 
 15 23  1  0  0  0  0 
 27 19  1  1  0  0  0 
 21 31  1  0  0  0  0 
 22 24  1  0  0  0  0 
 26 28  1  0  0  0  0 
 27 30  1  0  0  0  0 
 37 39  2  0  0  0  0 
M  END
> <ID>
CHEBI:224166

> <NAME>
14-dehydrovertisporin

$$$$

CDK     1030232203

 27 30  0  0  0  0  0  0  0  0999 V2000
    3.5723    0.8250    0.0000 O   0  0  0  0  0  0  0  0  0  0  0  0
    3.5723    0.0000    0.0000 C   0  0  0  0  0  0  0  0  0  0  0  0
    4.2869   -0.4125    0.0000 O   0  0  0  0  0  0  0  0  0  0  0  0
    2.8579   -0.4125    0.0000 C   0  0  0  0  0  0  0  0  0  0  0  0
    5.0013    0.0000    0.0000 C   0  0  0  0  0  0  0  0  0  0  0  0
    2.1434    0.0000    0.0000 C   0  0  0  0  0  0  0  0  0  0  0  0
    5.6909   -0.4096    0.0000 C   0  0  1  0  0  0  0  0  0  0  0  0
    1.4290   -0.4125    0.0000 C   0  0  0  0  0  0  0  0  0  0  0  0
    2.1434    0.8250    0.0000 C   0  0  0  0  0  0  0  0  0  0  0  0
    5.7393    0.7124    0.0000 C   0  0  2  0  0  0  0  0  0  0  0  0
    6.4399   -0.8250    0.0000 C   0  0  2  0  0  0  0  0  0  0  0  0
    5.0101   -0.8398    0.0000 C   0  0  0  0  0  0  0  0  0  0  0  0
    0.7144    0.0000    0.0000 C   0  0  0  0  0  0  0  0  0  0  0  0
    6.4167    0.2415    0.0000 C   0  0  1  0  0  0  0  0  0  0  0  0
    5.9778    1.5022    0.0000 C   0  0  2  0  0  0  0  0  0  0  0  0
    4.9244    0.8414    0.0000 C   0  0  0  0  0  0  0  0  0  0  0  0
    7.1668   -0.3815    0.0000 O   0  0  0  0  0  0  0  0  0  0  0  0
    6.4559   -1.6348    0.0000 C   0  0  0  0  0  0  0  0  0  0  0  0
    5.0273   -1.6647    0.0000 C   0  0  0  0  0  0  0  0  0  0  0  0
    0.0000   -0.4125    0.0000 O   0  0  0  0  0  0  0  0  0  0  0  0
    6.0760   -0.4541    0.0000 O   0  0  0  0  0  0  0  0  0  0  0  0
    7.0739    0.7403    0.0000 C   0  0  2  0  0  0  0  0  0  0  0  0
    6.7773   -0.4009    0.0000 C   0  0  0  0  0  0  0  0  0  0  0  0
    5.4790    2.1594    0.0000 O   0  0  0  0  0  0  0  0  0  0  0  0
    6.8026    1.5194    0.0000 C   0  0  0  0  0  0  0  0  0  0  0  0
    5.7502   -2.0622    0.0000 C   0  0  0  0  0  0  0  0  0  0  0  0
    5.7675   -2.8869    0.0000 C   0  0  0  0  0  0  0  0  0  0  0  0
  1  2  2  0  0  0  0 
  2  3  1  0  0  0  0 
  2  4  1  0  0  0  0 
  3  5  1  0  0  0  0 
  4  6  2  0  0  0  0 
  7  5  1  1  0  0  0 
  6  8  1  0  0  0  0 
  6  9  1  0  0  0  0 
 10  7  1  0  0  0  0 
 11  7  1  0  0  0  0 
  7 12  1  0  0  0  0 
  8 13  1  0  0  0  0 
 14 10  1  0  0  0  0 
 15 10  1  0  0  0  0 
 10 16  1  6  0  0  0 
 11 17  1  6  0  0  0 
 11 18  1  0  0  0  0 
 12 19  1  0  0  0  0 
 13 20  1  0  0  0  0 
 14 21  1  6  0  0  0 
 22 14  1  0  0  0  0 
 14 23  1  0  0  0  0 
 15 24  1  6  0  0  0 
 15 25  1  0  0  0  0 
 18 26  2  0  0  0  0 
 26 27  1  0  0  0  0 
 22 17  1  1  0  0  0 
 19 26  1  0  0  0  0 
 21 23  1  0  0  0  0 
 22 25  1  0  0  0  0 
M  END
> <ID>
CHEBI:224298

> <NAME>
Verrol

$$$$

CDK     1030232203

 38 42  0  0  0  0  0  0  0  0999 V2000
    3.5724   -4.9500    0.0000 O   0  0  0  0  0  0  0  0  0  0  0  0
    3.5724   -4.1251    0.0000 C   0  0  0  0  0  0  0  0  0  0  0  0
    4.2971   -3.7038    0.0000 O   0  0  0  0  0  0  0  0  0  0  0  0
    2.8579   -3.7126    0.0000 C   0  0  0  0  0  0  0  0  0  0  0  0
    4.3289   -2.9703    0.0000 C   0  0  0  0  0  0  0  0  0  0  0  0
    2.8579   -2.8875    0.0000 C   0  0  0  0  0  0  0  0  0  0  0  0
    4.7729   -2.6917    0.0000 C   0  0  0  0  0  0  0  0  0  0  0  0
    2.1434   -2.4750    0.0000 C   0  0  0  0  0  0  0  0  0  0  0  0
    3.5724   -2.4750    0.0000 C   0  0  0  0  0  0  0  0  0  0  0  0
    5.2116   -1.6578    0.0000 C   0  0  0  0  0  0  0  0  0  0  0  0
    5.3286   -3.3432    0.0000 C   0  0  0  0  0  0  0  0  0  0  0  0
    3.9609   -2.8480    0.0000 C   0  0  0  0  0  0  0  0  0  0  0  0
    2.1434   -1.6500    0.0000 C   0  0  0  0  0  0  0  0  0  0  0  0
    5.6809   -2.3363    0.0000 C   0  0  0  0  0  0  0  0  0  0  0  0
    5.7118   -1.0018    0.0000 C   0  0  0  0  0  0  0  0  0  0  0  0
    4.4937   -1.2512    0.0000 C   0  0  0  0  0  0  0  0  0  0  0  0
    6.1650   -3.1827    0.0000 O   0  0  0  0  0  0  0  0  0  0  0  0
    5.0598   -4.1072    0.0000 C   0  0  0  0  0  0  0  0  0  0  0  0
    3.6968   -3.6092    0.0000 C   0  0  0  0  0  0  0  0  0  0  0  0
    1.4290   -1.2375    0.0000 O   0  0  0  0  0  0  0  0  0  0  0  0
    5.1179   -2.8682    0.0000 O   0  0  0  0  0  0  0  0  0  0  0  0
    6.4712   -2.0995    0.0000 C   0  0  0  0  0  0  0  0  0  0  0  0
    5.7934   -3.0644    0.0000 C   0  0  0  0  0  0  0  0  0  0  0  0
    5.7158   -0.4125    0.0000 O   0  0  0  0  0  0  0  0  0  0  0  0
    6.4903   -1.2748    0.0000 C   0  0  0  0  0  0  0  0  0  0  0  0
    4.2491   -4.2601    0.0000 C   0  0  0  0  0  0  0  0  0  0  0  0
    1.4290   -0.4125    0.0000 C   0  0  0  0  0  0  0  0  0  0  0  0
    5.0013    0.0000    0.0000 C   0  0  0  0  0  0  0  0  0  0  0  0
    7.1688   -0.8054    0.0000 O   0  0  0  0  0  0  0  0  0  0  0  0
    3.9761   -5.0386    0.0000 C   0  0  0  0  0  0  0  0  0  0  0  0
    2.1434    0.0000    0.0000 C   0  0  0  0  0  0  0  0  0  0  0  0
    0.7145    0.0000    0.0000 C   0  0  0  0  0  0  0  0  0  0  0  0
    5.0013    0.8250    0.0000 O   0  0  0  0  0  0  0  0  0  0  0  0
    4.2869   -0.4125    0.0000 C   0  0  0  0  0  0  0  0  0  0  0  0
    2.8579   -0.4125    0.0000 C   0  0  0  0  0  0  0  0  0  0  0  0
    0.7145    0.8250    0.0000 O   0  0  0  0  0  0  0  0  0  0  0  0
    0.0000   -0.4125    0.0000 C   0  0  0  0  0  0  0  0  0  0  0  0
    3.5724    0.0000    0.0000 C   0  0  0  0  0  0  0  0  0  0  0  0
  1  2  2  0  0  0  0 
  2  3  1  0  0  0  0 
  2  4  1  0  0  0  0 
  3  5  1  0  0  0  0 
  4  6  2  3  0  0  0 
  5  7  1  0  0  0  0 
  6  8  1  0  0  0  0 
  6  9  1  0  0  0  0 
  7 10  1  0  0  0  0 
  7 11  1  0  0  0  0 
  7 12  1  0  0  0  0 
  8 13  1  0  0  0  0 
 10 14  1  0  0  0  0 
 10 15  1  0  0  0  0 
 10 16  1  0  0  0  0 
 11 17  1  0  0  0  0 
 11 18  1  0  0  0  0 
 12 19  1  0  0  0  0 
 13 20  1  0  0  0  0 
 14 21  1  0  0  0  0 
 14 22  1  0  0  0  0 
 14 23  1  0  0  0  0 
 15 24  1  0  0  0  0 
 15 25  1  0  0  0  0 
 18 26  2  0  0  0  0 
 20 27  1  0  0  0  0 
 24 28  1  0  0  0  0 
 25 29  1  0  0  0  0 
 26 30  1  0  0  0  0 
 27 31  1  0  0  0  0 
 27 32  1  0  0  0  0 
 28 33  2  0  0  0  0 
 28 34  1  0  0  0  0 
 31 35  2  3  0  0  0 
 32 36  1  0  0  0  0 
 32 37  1  0  0  0  0 
 34 38  2  0  0  0  0 
 17 22  1  0  0  0  0 
 19 26  1  0  0  0  0 
 21 23  1  0  0  0  0 
 22 25  1  0  0  0  0 
 35 38  1  0  0  0  0 
M  END
> <ID>
CHEBI:224426

> <NAME>
Roridin L

$$$$

CDK     1030232203

 41 45  0  0  0  0  0  0  0  0999 V2000
    1.2405   -0.2494    0.0000 O   0  0  0  0  0  0  0  0  0  0  0  0
    1.0909    0.4223    0.0000 C   0  0  0  0  0  0  0  0  0  0  0  0
    1.6286    1.0480    0.0000 O   0  0  0  0  0  0  0  0  0  0  0  0
    0.2801    0.5751    0.0000 C   0  0  0  0  0  0  0  0  0  0  0  0
    2.5063    0.8310    0.0000 C   0  0  0  0  0  0  0  0  0  0  0  0
    0.0071    1.3536    0.0000 C   0  0  0  0  0  0  0  0  0  0  0  0
    2.8332    1.2408    0.0000 C   0  0  1  0  0  0  0  0  0  0  0  0
   -0.8036    1.5064    0.0000 C   0  0  0  0  0  0  0  0  0  0  0  0
    0.5448    1.9793    0.0000 C   0  0  0  0  0  0  0  0  0  0  0  0
    2.9049    2.3616    0.0000 C   0  0  2  0  0  0  0  0  0  0  0  0
    3.5732    0.8099    0.0000 C   0  0  2  0  0  0  0  0  0  0  0  0
    2.1118    0.7472    0.0000 C   0  0  0  0  0  0  0  0  0  0  0  0
   -1.0766    2.2849    0.0000 C   0  0  0  0  0  0  0  0  0  0  0  0
    3.5723    1.8767    0.0000 C   0  0  0  0  0  0  0  0  0  0  0  0
    3.1599    3.1462    0.0000 C   0  0  2  0  0  0  0  0  0  0  0  0
    2.0929    2.5077    0.0000 C   0  0  0  0  0  0  0  0  0  0  0  0
    4.3093    1.2381    0.0000 O   0  0  0  0  0  0  0  0  0  0  0  0
    3.5723    0.0000    0.0000 C   0  0  0  0  0  0  0  0  0  0  0  0
    2.1434    0.0000    0.0000 C   0  0  1  0  0  0  0  0  0  0  0  0
   -0.5389    2.9106    0.0000 O   0  0  0  0  0  0  0  0  0  0  0  0
    3.2171    1.1884    0.0000 O   0  0  0  0  0  0  0  0  0  0  0  0
    4.2398    2.3616    0.0000 C   0  0  2  0  0  0  0  0  0  0  0  0
    3.9194    1.2268    0.0000 C   0  0  0  0  0  0  0  0  0  0  0  0
    2.9686    3.7036    0.0000 O   0  0  0  0  0  0  0  0  0  0  0  0
    3.9848    3.1462    0.0000 C   0  0  0  0  0  0  0  0  0  0  0  0
    2.8579   -0.4125    0.0000 C   0  0  0  0  0  0  0  0  0  0  0  0
    1.4907   -0.4659    0.0000 O   0  0  0  0  0  0  0  0  0  0  0  0
   -0.8119    3.6891    0.0000 C   0  0  0  0  0  0  0  0  0  0  0  0
    2.1579    3.8564    0.0000 C   0  0  0  0  0  0  0  0  0  0  0  0
    2.8579   -1.2375    0.0000 C   0  0  0  0  0  0  0  0  0  0  0  0
    1.4289   -1.2375    0.0000 C   0  0  0  0  0  0  0  0  0  0  0  0
   -0.2742    4.3148    0.0000 C   0  0  0  0  0  0  0  0  0  0  0  0
   -1.6227    3.8419    0.0000 C   0  0  0  0  0  0  0  0  0  0  0  0
    1.6202    3.2307    0.0000 O   0  0  0  0  0  0  0  0  0  0  0  0
    1.8849    4.6349    0.0000 C   0  0  0  0  0  0  0  0  0  0  0  0
    2.1434   -1.6500    0.0000 O   0  0  0  0  0  0  0  0  0  0  0  0
    0.7145   -1.6500    0.0000 C   0  0  0  0  0  0  0  0  0  0  0  0
    0.5365    4.1620    0.0000 C   0  0  0  0  0  0  0  0  0  0  0  0
   -1.8957    4.6204    0.0000 O   0  0  0  0  0  0  0  0  0  0  0  0
   -2.1604    3.2162    0.0000 C   0  0  0  0  0  0  0  0  0  0  0  0
    1.0742    4.7877    0.0000 C   0  0  0  0  0  0  0  0  0  0  0  0
  1  2  2  0  0  0  0 
  2  3  1  0  0  0  0 
  2  4  1  0  0  0  0 
  3  5  1  0  0  0  0 
  4  6  2  0  0  0  0 
  7  5  1  1  0  0  0 
  6  8  1  0  0  0  0 
  6  9  1  0  0  0  0 
 10  7  1  0  0  0  0 
 11  7  1  0  0  0  0 
  7 12  1  0  0  0  0 
  8 13  1  0  0  0  0 
 10 14  1  0  0  0  0 
 15 10  1  0  0  0  0 
 10 16  1  6  0  0  0 
 11 17  1  6  0  0  0 
 11 18  1  0  0  0  0 
 19 12  1  0  0  0  0 
 13 20  1  0  0  0  0 
 14 21  1  0  0  0  0 
 22 14  1  0  0  0  0 
 14 23  1  0  0  0  0 
 15 24  1  6  0  0  0 
 15 25  1  0  0  0  0 
 18 26  2  0  0  0  0 
 19 27  1  1  0  0  0 
 20 28  1  0  0  0  0 
 24 29  1  0  0  0  0 
 26 30  1  0  0  0  0 
 27 31  1  0  0  0  0 
 28 32  1  0  0  0  0 
 28 33  1  0  0  0  0 
 29 34  2  0  0  0  0 
 29 35  1  0  0  0  0 
 31 36  2  0  0  0  0 
 31 37  1  0  0  0  0 
 32 38  2  0  0  0  0 
 33 39  1  0  0  0  0 
 33 40  1  0  0  0  0 
 35 41  2  0  0  0  0 
 22 17  1  1  0  0  0 
 19 26  1  0  0  0  0 
 21 23  1  0  0  0  0 
 22 25  1  0  0  0  0 
 38 41  1  0  0  0  0 
M  END
> <ID>
CHEBI:224872

> <NAME>
Roridin K acetate

$$$$

CDK     1030232203

 39 46  0  0  0  0  0  0  0  0999 V2000
    4.2869   -1.2375    0.0000 O   0  0  0  0  0  0  0  0  0  0  0  0
    3.5724   -1.6500    0.0000 C   0  0  0  0  0  0  0  0  0  0  0  0
    3.5724   -2.4750    0.0000 O   0  0  0  0  0  0  0  0  0  0  0  0
    2.8580   -1.2375    0.0000 C   0  0  0  0  0  0  0  0  0  0  0  0
    3.0601   -2.7662    0.0000 C   0  0  1  0  0  0  0  0  0  0  0  0
    2.8580   -0.4125    0.0000 C   0  0  0  0  0  0  0  0  0  0  0  0
    2.2418   -2.6610    0.0000 C   0  0  0  0  0  0  0  0  0  0  0  0
    3.2129   -3.5769    0.0000 C   0  0  0  0  0  0  0  0  0  0  0  0
    3.5724    0.0000    0.0000 C   0  0  0  0  0  0  0  0  0  0  0  0
    1.1271   -2.7981    0.0000 C   0  0  2  0  0  0  0  0  0  0  0  0
    1.8889   -3.4067    0.0000 C   0  0  2  0  0  0  0  0  0  0  0  0
    2.2576   -1.8820    0.0000 C   0  0  0  0  0  0  0  0  0  0  0  0
    2.4891   -3.9728    0.0000 C   0  0  0  0  0  0  0  0  0  0  0  0
    3.5724    0.8250    0.0000 C   0  0  0  0  0  0  0  0  0  0  0  0
    0.8407   -3.6051    0.0000 C   0  0  2  0  0  0  0  0  0  0  0  0
    0.5109   -2.1823    0.0000 C   0  0  2  0  0  0  0  0  0  0  0  0
    0.6881   -2.5434    0.0000 C   0  0  0  0  0  0  0  0  0  0  0  0
    1.1467   -3.1851    0.0000 O   0  0  0  0  0  0  0  0  0  0  0  0
    1.3145   -3.8682    0.0000 C   0  0  0  0  0  0  0  0  0  0  0  0
    1.3979   -4.2492    0.0000 O   0  0  0  0  0  0  0  0  0  0  0  0
    2.8109    1.2617    0.0000 C   0  0  0  0  0  0  0  0  0  0  0  0
    0.0446   -3.7543    0.0000 C   0  0  0  0  0  0  0  0  0  0  0  0
    0.0530   -1.5716    0.0000 O   0  0  0  0  0  0  0  0  0  0  0  0
   -0.2201   -2.3501    0.0000 C   0  0  0  0  0  0  0  0  0  0  0  0
    0.7145   -1.6500    0.0000 O   0  0  0  0  0  0  0  0  0  0  0  0
    2.1434    0.7767    0.0000 O   0  0  0  0  0  0  0  0  0  0  0  0
    2.5560    2.0463    0.0000 C   0  0  0  0  0  0  0  0  0  0  0  0
   -0.4931   -3.1286    0.0000 C   0  0  0  0  0  0  0  0  0  0  0  0
    1.4289   -1.2375    0.0000 C   0  0  0  0  0  0  0  0  0  0  0  0
    1.4760    1.2617    0.0000 C   0  0  0  0  0  0  0  0  0  0  0  0
    1.7309    2.0463    0.0000 O   0  0  0  0  0  0  0  0  0  0  0  0
    3.0409    2.7137    0.0000 C   0  0  0  0  0  0  0  0  0  0  0  0
   -1.3038   -3.2814    0.0000 C   0  0  0  0  0  0  0  0  0  0  0  0
    2.0981   -1.5580    0.0000 O   0  0  0  0  0  0  0  0  0  0  0  0
    1.4289   -0.4125    0.0000 C   0  0  0  0  0  0  0  0  0  0  0  0
    0.7145    0.8250    0.0000 C   0  0  0  0  0  0  0  0  0  0  0  0
    1.4289    0.4125    0.0000 O   0  0  0  0  0  0  0  0  0  0  0  0
    0.7145    0.0000    0.0000 C   0  0  0  0  0  0  0  0  0  0  0  0
    0.0000   -0.4125    0.0000 C   0  0  0  0  0  0  0  0  0  0  0  0
  1  2  2  0  0  0  0 
  2  3  1  0  0  0  0 
  2  4  1  0  0  0  0 
  5  3  1  6  0  0  0 
  4  6  2  0  0  0  0 
  5  7  1  0  0  0  0 
  5  8  1  0  0  0  0 
  6  9  1  0  0  0  0 
 10  7  1  0  0  0  0 
 11  7  1  0  0  0  0 
  7 12  1  0  0  0  0 
  8 13  1  0  0  0  0 
  9 14  2  0  0  0  0 
 15 10  1  0  0  0  0 
 16 10  1  0  0  0  0 
 10 17  1  1  0  0  0 
 11 18  1  6  0  0  0 
 11 19  1  0  0  0  0 
 13 20  1  0  0  0  0 
 14 21  1  0  0  0  0 
 15 22  1  0  0  0  0 
 16 23  1  1  0  0  0 
 16 24  1  0  0  0  0 
 17 25  1  0  0  0  0 
 21 26  1  0  0  0  0 
 21 27  1  0  0  0  0 
 22 28  2  0  0  0  0 
 25 29  1  0  0  0  0 
 26 30  1  0  0  0  0 
 27 31  1  0  0  0  0 
 27 32  1  0  0  0  0 
 28 33  1  0  0  0  0 
 29 34  2  0  0  0  0 
 29 35  1  0  0  0  0 
 30 36  1  0  0  0  0 
 35 37  1  0  0  0  0 
 35 38  1  0  0  0  0 
 38 39  1  0  0  0  0 
 11 13  1  0  0  0  0 
 15 20  1  6  0  0  0 
 18 19  1  0  0  0  0 
 23 24  1  0  0  0  0 
 24 28  1  0  0  0  0 
 30 31  1  0  0  0  0 
 36 38  1  0  0  0  0 
 37 38  1  0  0  0  0 
M  END
> <ID>
CHEBI:225156

> <NAME>
7beta,8,beta2,'3'-diepoxyroridin H

$$$$

CDK     1030232203

 38 44  0  0  0  0  0  0  0  0999 V2000
    1.0482   -3.5835    0.0000 O   0  0  0  0  0  0  0  0  0  0  0  0
    0.5103   -2.9579    0.0000 C   0  0  0  0  0  0  0  0  0  0  0  0
    1.0838   -2.2628    0.0000 O   0  0  0  0  0  0  0  0  0  0  0  0
   -0.1991   -3.3789    0.0000 C   0  0  0  0  0  0  0  0  0  0  0  0
    1.4035   -1.5207    0.0000 C   0  0  0  0  0  0  0  0  0  0  0  0
   -1.0098   -3.5318    0.0000 C   0  0  0  0  0  0  0  0  0  0  0  0
    1.3830   -0.9024    0.0000 C   0  0  1  0  0  0  0  0  0  0  0  0
   -1.8239   -3.3983    0.0000 C   0  0  0  0  0  0  0  0  0  0  0  0
   -1.0000   -4.3568    0.0000 C   0  0  0  0  0  0  0  0  0  0  0  0
    0.7145    0.0000    0.0000 C   0  0  0  0  0  0  0  0  0  0  0  0
    2.2264   -0.7539    0.0000 C   0  0  2  0  0  0  0  0  0  0  0  0
    1.0538   -1.6554    0.0000 C   0  0  2  0  0  0  0  0  0  0  0  0
   -2.7152   -2.9277    0.0000 C   0  0  0  0  0  0  0  0  0  0  0  0
    1.5372    0.0604    0.0000 C   0  0  1  0  0  0  0  0  0  0  0  0
    0.4028    0.7639    0.0000 C   0  0  2  0  0  0  0  0  0  0  0  0
    0.0000   -0.4125    0.0000 C   0  0  0  0  0  0  0  0  0  0  0  0
    2.5123    0.0483    0.0000 O   0  0  0  0  0  0  0  0  0  0  0  0
    2.7486   -1.3731    0.0000 C   0  0  0  0  0  0  0  0  0  0  0  0
    0.7563   -2.4041    0.0000 O   0  0  0  0  0  0  0  0  0  0  0  0
    1.6571   -2.2954    0.0000 C   0  0  0  0  0  0  0  0  0  0  0  0
   -2.6388   -2.1062    0.0000 O   0  0  0  0  0  0  0  0  0  0  0  0
   -3.5201   -3.1089    0.0000 O   0  0  0  0  0  0  0  0  0  0  0  0
    1.7101   -0.6947    0.0000 O   0  0  0  0  0  0  0  0  0  0  0  0
    1.7341    0.8615    0.0000 C   0  0  0  0  0  0  0  0  0  0  0  0
    2.2218   -0.2119    0.0000 C   0  0  0  0  0  0  0  0  0  0  0  0
   -0.2525    1.0853    0.0000 O   0  0  0  0  0  0  0  0  0  0  0  0
    1.0329    1.2963    0.0000 C   0  0  0  0  0  0  0  0  0  0  0  0
    2.4691   -2.1493    0.0000 C   0  0  0  0  0  0  0  0  0  0  0  0
   -3.3964   -1.7797    0.0000 C   0  0  0  0  0  0  0  0  0  0  0  0
   -3.9411   -2.3994    0.0000 C   0  0  0  0  0  0  0  0  0  0  0  0
   -1.0666    1.2189    0.0000 C   0  0  0  0  0  0  0  0  0  0  0  0
    3.0015   -2.7794    0.0000 C   0  0  0  0  0  0  0  0  0  0  0  0
   -3.3823   -0.7720    0.0000 C   0  0  0  0  0  0  0  0  0  0  0  0
   -4.7626   -2.3230    0.0000 C   0  0  0  0  0  0  0  0  0  0  0  0
   -1.0764    2.0438    0.0000 O   0  0  0  0  0  0  0  0  0  0  0  0
   -1.8773    1.0659    0.0000 C   0  0  0  0  0  0  0  0  0  0  0  0
   -3.1094    0.0066    0.0000 C   0  0  0  0  0  0  0  0  0  0  0  0
   -2.5868    0.6449    0.0000 C   0  0  0  0  0  0  0  0  0  0  0  0
  1  2  2  0  0  0  0 
  2  3  1  0  0  0  0 
  2  4  1  0  0  0  0 
  3  5  1  0  0  0  0 
  4  6  2  0  0  0  0 
  7  5  1  1  0  0  0 
  6  8  1  0  0  0  0 
  6  9  1  0  0  0  0 
  7 10  1  0  0  0  0 
 11  7  1  0  0  0  0 
 12  7  1  0  0  0  0 
  8 13  1  0  0  0  0 
 14 10  1  0  0  0  0 
 15 10  1  0  0  0  0 
 10 16  1  0  0  0  0 
 11 17  1  6  0  0  0 
 11 18  1  0  0  0  0 
 12 19  1  1  0  0  0 
 12 20  1  0  0  0  0 
 13 21  1  0  0  0  0 
 13 22  1  0  0  0  0 
 14 23  1  6  0  0  0 
 14 24  1  0  0  0  0 
 14 25  1  0  0  0  0 
 15 26  1  6  0  0  0 
 15 27  1  0  0  0  0 
 18 28  2  0  0  0  0 
 21 29  1  0  0  0  0 
 22 30  1  0  0  0  0 
 26 31  1  0  0  0  0 
 28 32  1  0  0  0  0 
 29 33  1  0  0  0  0 
 30 34  1  0  0  0  0 
 31 35  2  0  0  0  0 
 31 36  1  0  0  0  0 
 33 37  2  0  0  0  0 
 36 38  2  0  0  0  0 
 17 24  1  0  0  0  0 
 19 20  1  0  0  0  0 
 20 28  1  0  0  0  0 
 23 25  1  0  0  0  0 
 24 27  1  0  0  0  0 
 29 30  1  0  0  0  0 
 37 38  1  0  0  0  0 
M  END
> <ID>
CHEBI:225161

> <NAME>
7beta,8beta-epoxyroridin H

$$$$

CDK     1030232203

 38 43  0  0  0  0  0  0  0  0999 V2000
    5.0013    0.0000    0.0000 O   0  0  0  0  0  0  0  0  0  0  0  0
    4.2887   -0.4260    0.0000 C   0  0  0  0  0  0  0  0  0  0  0  0
    3.5724    0.0000    0.0000 O   0  0  0  0  0  0  0  0  0  0  0  0
    4.2869   -1.2375    0.0000 C   0  0  0  0  0  0  0  0  0  0  0  0
    3.5989    0.8933    0.0000 C   0  0  0  0  0  0  0  0  0  0  0  0
    3.5724   -1.6500    0.0000 C   0  0  0  0  0  0  0  0  0  0  0  0
    3.1597    1.1480    0.0000 C   0  0  1  0  0  0  0  0  0  0  0  0
    2.8579   -1.2375    0.0000 C   0  0  0  0  0  0  0  0  0  0  0  0
    3.5724   -2.4750    0.0000 C   0  0  0  0  0  0  0  0  0  0  0  0
    2.0451    1.0109    0.0000 C   0  0  0  0  0  0  0  0  0  0  0  0
    3.4462    1.9551    0.0000 C   0  0  2  0  0  0  0  0  0  0  0  0
    3.7760    0.5323    0.0000 C   0  0  2  0  0  0  0  0  0  0  0  0
    2.8579   -0.4125    0.0000 C   0  0  0  0  0  0  0  0  0  0  0  0
    2.3980    1.7566    0.0000 C   0  0  1  0  0  0  0  0  0  0  0  0
    1.2268    1.1162    0.0000 C   0  0  2  0  0  0  0  0  0  0  0  0
    2.0066    0.2780    0.0000 C   0  0  0  0  0  0  0  0  0  0  0  0
    2.8890    2.5991    0.0000 O   0  0  0  0  0  0  0  0  0  0  0  0
    4.2423    2.1043    0.0000 C   0  0  0  0  0  0  0  0  0  0  0  0
    4.2364   -0.0307    0.0000 O   0  0  0  0  0  0  0  0  0  0  0  0
    4.5069    0.7001    0.0000 C   0  0  0  0  0  0  0  0  0  0  0  0
    2.1661   -0.0460    0.0000 O   0  0  0  0  0  0  0  0  0  0  0  0
    3.1402    1.5351    0.0000 O   0  0  0  0  0  0  0  0  0  0  0  0
    1.7978    2.3227    0.0000 C   0  0  0  0  0  0  0  0  0  0  0  0
    2.9723    2.2181    0.0000 C   0  0  0  0  0  0  0  0  0  0  0  0
    0.9172    0.8268    0.0000 O   0  0  0  0  0  0  0  0  0  0  0  0
    1.0740    1.9269    0.0000 C   0  0  0  0  0  0  0  0  0  0  0  0
    4.7800    1.4786    0.0000 C   0  0  0  0  0  0  0  0  0  0  0  0
    1.4129   -0.5250    0.0000 C   0  0  0  0  0  0  0  0  0  0  0  0
    0.6386    0.0727    0.0000 C   0  0  0  0  0  0  0  0  0  0  0  0
    5.5907    1.6314    0.0000 C   0  0  0  0  0  0  0  0  0  0  0  0
    1.4290   -1.2375    0.0000 C   0  0  0  0  0  0  0  0  0  0  0  0
    0.7405   -0.1842    0.0000 C   0  0  0  0  0  0  0  0  0  0  0  0
    1.4551   -0.2292    0.0000 O   0  0  0  0  0  0  0  0  0  0  0  0
    0.0057   -0.5235    0.0000 C   0  0  0  0  0  0  0  0  0  0  0  0
    0.7145   -1.6500    0.0000 C   0  0  0  0  0  0  0  0  0  0  0  0
    0.7071    0.8633    0.0000 O   0  0  0  0  0  0  0  0  0  0  0  0
   -0.0873   -0.2266    0.0000 C   0  0  0  0  0  0  0  0  0  0  0  0
    0.0000   -1.2375    0.0000 C   0  0  0  0  0  0  0  0  0  0  0  0
  1  2  2  0  0  0  0 
  2  3  1  0  0  0  0 
  2  4  1  0  0  0  0 
  3  5  1  0  0  0  0 
  4  6  2  0  0  0  0 
  7  5  1  1  0  0  0 
  6  8  1  0  0  0  0 
  6  9  1  0  0  0  0 
  7 10  1  0  0  0  0 
 11  7  1  0  0  0  0 
 12  7  1  0  0  0  0 
  8 13  1  0  0  0  0 
 14 10  1  0  0  0  0 
 15 10  1  0  0  0  0 
 10 16  1  0  0  0  0 
 11 17  1  6  0  0  0 
 11 18  1  0  0  0  0 
 12 19  1  1  0  0  0 
 12 20  1  0  0  0  0 
 13 21  1  0  0  0  0 
 14 22  1  6  0  0  0 
 14 23  1  0  0  0  0 
 14 24  1  0  0  0  0 
 15 25  1  6  0  0  0 
 15 26  1  0  0  0  0 
 18 27  2  0  0  0  0 
 21 28  1  0  0  0  0 
 25 29  1  0  0  0  0 
 27 30  1  0  0  0  0 
 28 31  1  0  0  0  0 
 28 32  1  0  0  0  0 
 29 33  2  0  0  0  0 
 29 34  1  0  0  0  0 
 31 35  2  0  0  0  0 
 32 36  1  0  0  0  0 
 32 37  1  0  0  0  0 
 34 38  2  0  0  0  0 
 17 23  1  0  0  0  0 
 19 20  1  0  0  0  0 
 20 27  1  0  0  0  0 
 22 24  1  0  0  0  0 
 23 26  1  0  0  0  0 
 35 38  1  0  0  0  0 
M  END
> <ID>
CHEBI:225167

> <NAME>
7beta,8beta-epoxyisororidin E

$$$$

CDK     1030232203

 37 41  0  0  0  0  0  0  0  0999 V2000
    5.0014    0.0000    0.0000 O   0  0  0  0  0  0  0  0  0  0  0  0
    4.2869   -0.4125    0.0000 C   0  0  0  0  0  0  0  0  0  0  0  0
    3.5724    0.0000    0.0000 O   0  0  0  0  0  0  0  0  0  0  0  0
    4.2869   -1.2375    0.0000 C   0  0  0  0  0  0  0  0  0  0  0  0
    3.6227    0.9077    0.0000 C   0  0  0  0  0  0  0  0  0  0  0  0
    3.5724   -1.6500    0.0000 C   0  0  0  0  0  0  0  0  0  0  0  0
    3.1597    1.1480    0.0000 C   0  0  1  0  0  0  0  0  0  0  0  0
    2.8579   -1.2375    0.0000 C   0  0  0  0  0  0  0  0  0  0  0  0
    3.5724   -2.4750    0.0000 C   0  0  0  0  0  0  0  0  0  0  0  0
    2.0450    1.0110    0.0000 C   0  0  0  0  0  0  0  0  0  0  0  0
    3.4462    1.9551    0.0000 C   0  0  2  0  0  0  0  0  0  0  0  0
    3.7460    0.5647    0.0000 C   0  0  0  0  0  0  0  0  0  0  0  0
    2.8579   -0.4125    0.0000 C   0  0  0  0  0  0  0  0  0  0  0  0
    2.3980    1.7567    0.0000 C   0  0  1  0  0  0  0  0  0  0  0  0
    1.2268    1.1162    0.0000 C   0  0  2  0  0  0  0  0  0  0  0  0
    2.0066    0.2781    0.0000 C   0  0  0  0  0  0  0  0  0  0  0  0
    2.8890    2.5991    0.0000 O   0  0  0  0  0  0  0  0  0  0  0  0
    4.2422    2.1042    0.0000 C   0  0  0  0  0  0  0  0  0  0  0  0
    4.5069    0.7000    0.0000 C   0  0  0  0  0  0  0  0  0  0  0  0
    2.1661   -0.0460    0.0000 O   0  0  0  0  0  0  0  0  0  0  0  0
    3.1401    1.5351    0.0000 O   0  0  0  0  0  0  0  0  0  0  0  0
    1.7978    2.3227    0.0000 C   0  0  0  0  0  0  0  0  0  0  0  0
    2.9723    2.2181    0.0000 C   0  0  0  0  0  0  0  0  0  0  0  0
    0.9172    0.8267    0.0000 O   0  0  0  0  0  0  0  0  0  0  0  0
    1.0740    1.9269    0.0000 C   0  0  0  0  0  0  0  0  0  0  0  0
    4.7799    1.4786    0.0000 C   0  0  0  0  0  0  0  0  0  0  0  0
    1.4129   -0.5250    0.0000 C   0  0  0  0  0  0  0  0  0  0  0  0
    0.6386    0.0727    0.0000 C   0  0  0  0  0  0  0  0  0  0  0  0
    5.5907    1.6313    0.0000 C   0  0  0  0  0  0  0  0  0  0  0  0
    1.4289   -1.2375    0.0000 C   0  0  0  0  0  0  0  0  0  0  0  0
    0.7405   -0.1842    0.0000 C   0  0  0  0  0  0  0  0  0  0  0  0
    1.4551   -0.2292    0.0000 O   0  0  0  0  0  0  0  0  0  0  0  0
    0.0057   -0.5235    0.0000 C   0  0  0  0  0  0  0  0  0  0  0  0
    0.7145   -1.6500    0.0000 C   0  0  0  0  0  0  0  0  0  0  0  0
    0.7071    0.8633    0.0000 O   0  0  0  0  0  0  0  0  0  0  0  0
   -0.0873   -0.2266    0.0000 C   0  0  0  0  0  0  0  0  0  0  0  0
    0.0000   -1.2375    0.0000 C   0  0  0  0  0  0  0  0  0  0  0  0
  1  2  2  0  0  0  0 
  2  3  1  0  0  0  0 
  2  4  1  0  0  0  0 
  3  5  1  0  0  0  0 
  4  6  2  0  0  0  0 
  7  5  1  1  0  0  0 
  6  8  1  0  0  0  0 
  6  9  1  0  0  0  0 
  7 10  1  0  0  0  0 
 11  7  1  0  0  0  0 
  7 12  1  0  0  0  0 
  8 13  1  0  0  0  0 
 14 10  1  0  0  0  0 
 15 10  1  0  0  0  0 
 10 16  1  0  0  0  0 
 11 17  1  6  0  0  0 
 11 18  1  0  0  0  0 
 12 19  1  0  0  0  0 
 13 20  1  0  0  0  0 
 14 21  1  6  0  0  0 
 14 22  1  0  0  0  0 
 14 23  1  0  0  0  0 
 15 24  1  6  0  0  0 
 15 25  1  0  0  0  0 
 18 26  2  0  0  0  0 
 20 27  1  0  0  0  0 
 24 28  1  0  0  0  0 
 26 29  1  0  0  0  0 
 27 30  1  0  0  0  0 
 27 31  1  0  0  0  0 
 28 32  2  0  0  0  0 
 28 33  1  0  0  0  0 
 30 34  2  0  0  0  0 
 31 35  1  0  0  0  0 
 31 36  1  0  0  0  0 
 33 37  2  0  0  0  0 
 17 22  1  0  0  0  0 
 19 26  1  0  0  0  0 
 21 23  1  0  0  0  0 
 22 25  1  0  0  0  0 
 34 37  1  0  0  0  0 
M  END
> <ID>
CHEBI:225171

> <NAME>
Isororidin E

$$$$

CDK     1030232203

 37 42  0  0  0  0  0  0  0  0999 V2000
    1.0482   -3.5835    0.0000 O   0  0  0  0  0  0  0  0  0  0  0  0
    0.5103   -2.9579    0.0000 C   0  0  0  0  0  0  0  0  0  0  0  0
    1.0331   -2.3196    0.0000 O   0  0  0  0  0  0  0  0  0  0  0  0
   -0.1991   -3.3789    0.0000 C   0  0  0  0  0  0  0  0  0  0  0  0
    1.3743   -1.5431    0.0000 C   0  0  0  0  0  0  0  0  0  0  0  0
   -1.0098   -3.5318    0.0000 C   0  0  0  0  0  0  0  0  0  0  0  0
    1.3830   -0.9024    0.0000 C   0  0  1  0  0  0  0  0  0  0  0  0
   -1.8239   -3.3982    0.0000 C   0  0  0  0  0  0  0  0  0  0  0  0
   -1.0000   -4.3567    0.0000 C   0  0  0  0  0  0  0  0  0  0  0  0
    0.7144    0.0000    0.0000 C   0  0  0  0  0  0  0  0  0  0  0  0
    2.2264   -0.7539    0.0000 C   0  0  2  0  0  0  0  0  0  0  0  0
    1.0182   -1.6691    0.0000 C   0  0  0  0  0  0  0  0  0  0  0  0
   -2.7152   -2.9277    0.0000 C   0  0  0  0  0  0  0  0  0  0  0  0
    1.5372    0.0604    0.0000 C   0  0  1  0  0  0  0  0  0  0  0  0
    0.4028    0.7639    0.0000 C   0  0  2  0  0  0  0  0  0  0  0  0
    0.0000   -0.4125    0.0000 C   0  0  0  0  0  0  0  0  0  0  0  0
    2.5123    0.0483    0.0000 O   0  0  0  0  0  0  0  0  0  0  0  0
    2.7486   -1.3730    0.0000 C   0  0  0  0  0  0  0  0  0  0  0  0
    1.6571   -2.2954    0.0000 C   0  0  0  0  0  0  0  0  0  0  0  0
   -2.6388   -2.1062    0.0000 O   0  0  0  0  0  0  0  0  0  0  0  0
   -3.5201   -3.1088    0.0000 O   0  0  0  0  0  0  0  0  0  0  0  0
    1.7101   -0.6946    0.0000 O   0  0  0  0  0  0  0  0  0  0  0  0
    1.7341    0.8615    0.0000 C   0  0  0  0  0  0  0  0  0  0  0  0
    2.2218   -0.2119    0.0000 C   0  0  0  0  0  0  0  0  0  0  0  0
   -0.2524    1.0853    0.0000 O   0  0  0  0  0  0  0  0  0  0  0  0
    1.0329    1.2963    0.0000 C   0  0  0  0  0  0  0  0  0  0  0  0
    2.4691   -2.1493    0.0000 C   0  0  0  0  0  0  0  0  0  0  0  0
   -3.3964   -1.7797    0.0000 C   0  0  0  0  0  0  0  0  0  0  0  0
   -3.9411   -2.3993    0.0000 C   0  0  0  0  0  0  0  0  0  0  0  0
   -1.0666    1.2189    0.0000 C   0  0  0  0  0  0  0  0  0  0  0  0
    3.0015   -2.7794    0.0000 C   0  0  0  0  0  0  0  0  0  0  0  0
   -3.3823   -0.7720    0.0000 C   0  0  0  0  0  0  0  0  0  0  0  0
   -4.7625   -2.3229    0.0000 C   0  0  0  0  0  0  0  0  0  0  0  0
   -1.0764    2.0438    0.0000 O   0  0  0  0  0  0  0  0  0  0  0  0
   -1.8773    1.0659    0.0000 C   0  0  0  0  0  0  0  0  0  0  0  0
   -3.1094    0.0066    0.0000 C   0  0  0  0  0  0  0  0  0  0  0  0
   -2.5868    0.6449    0.0000 C   0  0  0  0  0  0  0  0  0  0  0  0
  1  2  2  0  0  0  0 
  2  3  1  0  0  0  0 
  2  4  1  0  0  0  0 
  3  5  1  0  0  0  0 
  4  6  2  0  0  0  0 
  7  5  1  1  0  0  0 
  6  8  1  0  0  0  0 
  6  9  1  0  0  0  0 
  7 10  1  0  0  0  0 
 11  7  1  0  0  0  0 
  7 12  1  0  0  0  0 
  8 13  1  0  0  0  0 
 14 10  1  0  0  0  0 
 15 10  1  0  0  0  0 
 10 16  1  0  0  0  0 
 11 17  1  6  0  0  0 
 11 18  1  0  0  0  0 
 12 19  1  0  0  0  0 
 13 20  1  0  0  0  0 
 13 21  1  0  0  0  0 
 14 22  1  6  0  0  0 
 14 23  1  0  0  0  0 
 14 24  1  0  0  0  0 
 15 25  1  6  0  0  0 
 15 26  1  0  0  0  0 
 18 27  2  0  0  0  0 
 20 28  1  0  0  0  0 
 21 29  1  0  0  0  0 
 25 30  1  0  0  0  0 
 27 31  1  0  0  0  0 
 28 32  1  0  0  0  0 
 29 33  1  0  0  0  0 
 30 34  2  0  0  0  0 
 30 35  1  0  0  0  0 
 32 36  2  0  0  0  0 
 35 37  2  0  0  0  0 
 17 23  1  0  0  0  0 
 19 27  1  0  0  0  0 
 22 24  1  0  0  0  0 
 23 26  1  0  0  0  0 
 28 29  1  0  0  0  0 
 36 37  1  0  0  0  0 
M  END
> <ID>
CHEBI:225176

> <NAME>
Roridin H

$$$$

CDK     1030232203

 39 43  0  0  0  0  0  0  0  0999 V2000
    1.2405   -0.2494    0.0000 O   0  0  0  0  0  0  0  0  0  0  0  0
    1.0909    0.4223    0.0000 C   0  0  0  0  0  0  0  0  0  0  0  0
    1.6286    1.0480    0.0000 O   0  0  0  0  0  0  0  0  0  0  0  0
    0.2801    0.5751    0.0000 C   0  0  0  0  0  0  0  0  0  0  0  0
    2.5063    0.8310    0.0000 C   0  0  0  0  0  0  0  0  0  0  0  0
    0.0071    1.3536    0.0000 C   0  0  0  0  0  0  0  0  0  0  0  0
    2.8331    1.2409    0.0000 C   0  0  1  0  0  0  0  0  0  0  0  0
   -0.8036    1.5064    0.0000 C   0  0  0  0  0  0  0  0  0  0  0  0
    0.5448    1.9793    0.0000 C   0  0  0  0  0  0  0  0  0  0  0  0
    2.9049    2.3616    0.0000 C   0  0  2  0  0  0  0  0  0  0  0  0
    3.5732    0.8099    0.0000 C   0  0  2  0  0  0  0  0  0  0  0  0
    2.1118    0.7472    0.0000 C   0  0  0  0  0  0  0  0  0  0  0  0
   -1.0766    2.2849    0.0000 C   0  0  0  0  0  0  0  0  0  0  0  0
    3.5723    1.8767    0.0000 C   0  0  0  0  0  0  0  0  0  0  0  0
    3.1599    3.1462    0.0000 C   0  0  2  0  0  0  0  0  0  0  0  0
    2.0930    2.5077    0.0000 C   0  0  0  0  0  0  0  0  0  0  0  0
    4.3093    1.2382    0.0000 O   0  0  0  0  0  0  0  0  0  0  0  0
    3.5723    0.0000    0.0000 C   0  0  0  0  0  0  0  0  0  0  0  0
    2.1434    0.0000    0.0000 C   0  0  1  0  0  0  0  0  0  0  0  0
   -0.5389    2.9106    0.0000 O   0  0  0  0  0  0  0  0  0  0  0  0
    3.2171    1.1884    0.0000 O   0  0  0  0  0  0  0  0  0  0  0  0
    4.2398    2.3616    0.0000 C   0  0  2  0  0  0  0  0  0  0  0  0
    3.9194    1.2268    0.0000 C   0  0  0  0  0  0  0  0  0  0  0  0
    2.9686    3.7036    0.0000 O   0  0  0  0  0  0  0  0  0  0  0  0
    3.9848    3.1462    0.0000 C   0  0  0  0  0  0  0  0  0  0  0  0
    2.8579   -0.4125    0.0000 C   0  0  0  0  0  0  0  0  0  0  0  0
    1.4907   -0.4659    0.0000 O   0  0  0  0  0  0  0  0  0  0  0  0
   -0.8119    3.6891    0.0000 C   0  0  0  0  0  0  0  0  0  0  0  0
    2.1579    3.8564    0.0000 C   0  0  0  0  0  0  0  0  0  0  0  0
    2.8579   -1.2375    0.0000 C   0  0  0  0  0  0  0  0  0  0  0  0
    1.4290   -1.2375    0.0000 C   0  0  0  0  0  0  0  0  0  0  0  0
   -1.6226    3.8420    0.0000 O   0  0  0  0  0  0  0  0  0  0  0  0
   -0.2742    4.3148    0.0000 C   0  0  0  0  0  0  0  0  0  0  0  0
    1.6202    3.2307    0.0000 O   0  0  0  0  0  0  0  0  0  0  0  0
    1.8849    4.6349    0.0000 C   0  0  0  0  0  0  0  0  0  0  0  0
    2.1434   -1.6500    0.0000 O   0  0  0  0  0  0  0  0  0  0  0  0
    0.7145   -1.6500    0.0000 C   0  0  0  0  0  0  0  0  0  0  0  0
    0.5364    4.1620    0.0000 C   0  0  0  0  0  0  0  0  0  0  0  0
    1.0741    4.7877    0.0000 C   0  0  0  0  0  0  0  0  0  0  0  0
  1  2  2  0  0  0  0 
  2  3  1  0  0  0  0 
  2  4  1  0  0  0  0 
  3  5  1  0  0  0  0 
  4  6  2  0  0  0  0 
  7  5  1  1  0  0  0 
  6  8  1  0  0  0  0 
  6  9  1  0  0  0  0 
 10  7  1  0  0  0  0 
 11  7  1  0  0  0  0 
  7 12  1  0  0  0  0 
  8 13  1  0  0  0  0 
 10 14  1  0  0  0  0 
 15 10  1  0  0  0  0 
 10 16  1  6  0  0  0 
 11 17  1  6  0  0  0 
 11 18  1  0  0  0  0 
 19 12  1  0  0  0  0 
 13 20  1  0  0  0  0 
 14 21  1  0  0  0  0 
 22 14  1  0  0  0  0 
 14 23  1  0  0  0  0 
 15 24  1  6  0  0  0 
 15 25  1  0  0  0  0 
 18 26  2  0  0  0  0 
 19 27  1  1  0  0  0 
 20 28  1  0  0  0  0 
 24 29  1  0  0  0  0 
 26 30  1  0  0  0  0 
 27 31  1  0  0  0  0 
 28 32  2  0  0  0  0 
 28 33  1  0  0  0  0 
 29 34  2  0  0  0  0 
 29 35  1  0  0  0  0 
 31 36  2  0  0  0  0 
 31 37  1  0  0  0  0 
 33 38  2  0  0  0  0 
 35 39  2  0  0  0  0 
 22 17  1  1  0  0  0 
 19 26  1  0  0  0  0 
 21 23  1  0  0  0  0 
 22 25  1  0  0  0  0 
 38 39  1  0  0  0  0 
M  END
> <ID>
CHEBI:225508

> <NAME>
Verrucarin L acetate

$$$$

CDK     1030232203

 44 48  0  0  0  0  0  0  0  0999 V2000
    5.7460    4.1765    0.0000 O   0  0  0  0  0  0  0  0  0  0  0  0
    4.9353    4.3293    0.0000 C   0  0  0  0  0  0  0  0  0  0  0  0
    4.3976    3.7036    0.0000 O   0  0  0  0  0  0  0  0  0  0  0  0
    4.6622    5.1079    0.0000 C   0  0  0  0  0  0  0  0  0  0  0  0
    4.5888    3.1463    0.0000 C   0  0  1  0  0  0  0  0  0  0  0  0
    3.8516    5.2607    0.0000 C   0  0  0  0  0  0  0  0  0  0  0  0
    4.3339    2.3616    0.0000 C   0  0  2  0  0  0  0  0  0  0  0  0
    5.4138    3.1463    0.0000 C   0  0  0  0  0  0  0  0  0  0  0  0
    3.5785    6.0392    0.0000 C   0  0  0  0  0  0  0  0  0  0  0  0
    4.2621    1.2409    0.0000 C   0  0  1  0  0  0  0  0  0  0  0  0
    5.0013    1.8767    0.0000 C   0  0  2  0  0  0  0  0  0  0  0  0
    3.5713    2.5214    0.0000 C   0  0  0  0  0  0  0  0  0  0  0  0
    5.6687    2.3616    0.0000 C   0  0  2  0  0  0  0  0  0  0  0  0
    2.7678    6.1920    0.0000 C   0  0  0  0  0  0  0  0  0  0  0  0
    5.0021    0.8099    0.0000 C   0  0  2  0  0  0  0  0  0  0  0  0
    3.9353    0.8310    0.0000 C   0  0  0  0  0  0  0  0  0  0  0  0
    3.5408    0.7473    0.0000 C   0  0  0  0  0  0  0  0  0  0  0  0
    4.6461    1.1884    0.0000 O   0  0  0  0  0  0  0  0  0  0  0  0
    5.3484    1.2269    0.0000 C   0  0  0  0  0  0  0  0  0  0  0  0
    5.7383    1.2381    0.0000 O   0  0  0  0  0  0  0  0  0  0  0  0
    2.2301    5.5663    0.0000 C   0  0  1  0  0  0  0  0  0  0  0  0
    5.0013    0.0000    0.0000 C   0  0  0  0  0  0  0  0  0  0  0  0
    3.0575    1.0480    0.0000 O   0  0  0  0  0  0  0  0  0  0  0  0
    3.5724    0.0000    0.0000 C   0  0  1  0  0  0  0  0  0  0  0  0
    2.5031    4.7877    0.0000 O   0  0  0  0  0  0  0  0  0  0  0  0
    1.4193    5.7191    0.0000 C   0  0  1  0  0  0  0  0  0  0  0  0
    4.2868   -0.4125    0.0000 C   0  0  0  0  0  0  0  0  0  0  0  0
    2.7845    1.8265    0.0000 C   0  0  0  0  0  0  0  0  0  0  0  0
    2.8579   -0.4125    0.0000 O   0  0  0  0  0  0  0  0  0  0  0  0
    1.9654    4.1621    0.0000 C   0  0  0  0  0  0  0  0  0  0  0  0
    1.1463    6.4976    0.0000 O   0  0  0  0  0  0  0  0  0  0  0  0
    0.8817    5.0934    0.0000 C   0  0  0  0  0  0  0  0  0  0  0  0
    4.2868   -1.2375    0.0000 C   0  0  0  0  0  0  0  0  0  0  0  0
    3.2233    2.4247    0.0000 O   0  0  0  0  0  0  0  0  0  0  0  0
    1.9738    1.9793    0.0000 C   0  0  1  0  0  0  0  0  0  0  0  0
    2.1434    0.0000    0.0000 C   0  0  0  0  0  0  0  0  0  0  0  0
    2.2384    3.3835    0.0000 C   0  0  0  0  0  0  0  0  0  0  0  0
    1.4361    1.3536    0.0000 O   0  0  0  0  0  0  0  0  0  0  0  0
    1.7008    2.7578    0.0000 C   0  0  2  0  0  0  0  0  0  0  0  0
    2.1434    0.8250    0.0000 O   0  0  0  0  0  0  0  0  0  0  0  0
    1.4290   -0.4125    0.0000 C   0  0  0  0  0  0  0  0  0  0  0  0
    0.8900    2.9106    0.0000 C   0  0  0  0  0  0  0  0  0  0  0  0
    0.7145    0.0000    0.0000 C   0  0  0  0  0  0  0  0  0  0  0  0
    0.0000   -0.4125    0.0000 C   0  0  0  0  0  0  0  0  0  0  0  0
  1  2  2  0  0  0  0 
  2  3  1  0  0  0  0 
  2  4  1  0  0  0  0 
  5  3  1  6  0  0  0 
  4  6  2  0  0  0  0 
  7  5  1  0  0  0  0 
  5  8  1  0  0  0  0 
  6  9  1  0  0  0  0 
 10  7  1  0  0  0  0 
 11  7  1  0  0  0  0 
  7 12  1  6  0  0  0 
 13  8  1  0  0  0  0 
  9 14  2  0  0  0  0 
 15 10  1  0  0  0  0 
 10 16  1  1  0  0  0 
 10 17  1  0  0  0  0 
 11 18  1  6  0  0  0 
 11 19  1  0  0  0  0 
 13 20  1  1  0  0  0 
 21 14  1  0  0  0  0 
 15 22  1  0  0  0  0 
 16 23  1  0  0  0  0 
 24 17  1  0  0  0  0 
 21 25  1  1  0  0  0 
 26 21  1  0  0  0  0 
 22 27  2  0  0  0  0 
 23 28  1  0  0  0  0 
 24 29  1  1  0  0  0 
 25 30  1  0  0  0  0 
 26 31  1  6  0  0  0 
 26 32  1  0  0  0  0 
 27 33  1  0  0  0  0 
 28 34  2  0  0  0  0 
 35 28  1  0  0  0  0 
 29 36  1  0  0  0  0 
 30 37  1  0  0  0  0 
 35 38  1  1  0  0  0 
 39 35  1  0  0  0  0 
 36 40  2  0  0  0  0 
 36 41  1  0  0  0  0 
 39 42  1  1  0  0  0 
 41 43  1  0  0  0  0 
 43 44  1  0  0  0  0 
 11 13  1  0  0  0  0 
 15 20  1  6  0  0  0 
 18 19  1  0  0  0  0 
 24 27  1  0  0  0  0 
 37 39  1  0  0  0  0 
M  END
> <ID>
CHEBI:225839

> <NAME>
YM-47525

$$$$

CDK     1030232203

 28 32  0  0  0  0  0  0  0  0999 V2000
    3.5724    0.8250    0.0000 O   0  0  0  0  0  0  0  0  0  0  0  0
    3.5724    0.0000    0.0000 C   0  0  0  0  0  0  0  0  0  0  0  0
    4.2870   -0.4125    0.0000 O   0  0  0  0  0  0  0  0  0  0  0  0
    2.8579   -0.4125    0.0000 C   0  0  0  0  0  0  0  0  0  0  0  0
    5.0014    0.0000    0.0000 C   0  0  1  0  0  0  0  0  0  0  0  0
    2.1435    0.0000    0.0000 C   0  0  0  0  0  0  0  0  0  0  0  0
    5.7551   -0.3355    0.0000 C   0  0  2  0  0  0  0  0  0  0  0  0
    5.0876    0.8205    0.0000 C   0  0  0  0  0  0  0  0  0  0  0  0
    2.1435    0.8250    0.0000 C   0  0  0  0  0  0  0  0  0  0  0  0
    6.8623   -0.5241    0.0000 C   0  0  2  0  0  0  0  0  0  0  0  0
    6.3072    0.2775    0.0000 C   0  0  0  0  0  0  0  0  0  0  0  0
    5.5250   -1.1278    0.0000 C   0  0  0  0  0  0  0  0  0  0  0  0
    5.8947    0.9920    0.0000 C   0  0  2  0  0  0  0  0  0  0  0  0
    1.4290    1.2375    0.0000 C   0  0  0  0  0  0  0  0  0  0  0  0
    7.3682    0.1668    0.0000 C   0  0  2  0  0  0  0  0  0  0  0  0
    7.2037   -1.2535    0.0000 C   0  0  0  0  0  0  0  0  0  0  0  0
    6.3694   -1.1570    0.0000 C   0  0  0  0  0  0  0  0  0  0  0  0
    6.9546   -0.1477    0.0000 O   0  0  0  0  0  0  0  0  0  0  0  0
    6.9897    0.5548    0.0000 C   0  0  0  0  0  0  0  0  0  0  0  0
    7.0193    0.9437    0.0000 O   0  0  0  0  0  0  0  0  0  0  0  0
    1.4290    2.0625    0.0000 C   0  0  1  0  0  0  0  0  0  0  0  0
    8.1736    0.0813    0.0000 C   0  0  0  0  0  0  0  0  0  0  0  0
    8.0243   -1.3397    0.0000 C   0  0  0  0  0  0  0  0  0  0  0  0
    1.0165    2.7770    0.0000 O   0  0  0  0  0  0  0  0  0  0  0  0
    1.8415    2.7770    0.0000 C   0  0  2  0  0  0  0  0  0  0  0  0
    8.5092   -0.6723    0.0000 C   0  0  0  0  0  0  0  0  0  0  0  0
    2.5560    3.1895    0.0000 C   0  0  0  0  0  0  0  0  0  0  0  0
    9.3297   -0.7585    0.0000 C   0  0  0  0  0  0  0  0  0  0  0  0
  1  2  2  0  0  0  0 
  2  3  1  0  0  0  0 
  2  4  1  0  0  0  0 
  5  3  1  6  0  0  0 
  4  6  2  0  0  0  0 
  7  5  1  0  0  0  0 
  5  8  1  0  0  0  0 
  6  9  1  0  0  0  0 
 10  7  1  0  0  0  0 
  7 11  1  0  0  0  0 
  7 12  1  6  0  0  0 
 13  8  1  0  0  0  0 
  9 14  2  0  0  0  0 
 15 10  1  0  0  0  0 
 10 16  1  0  0  0  0 
 10 17  1  1  0  0  0 
 11 18  1  0  0  0  0 
 11 19  1  0  0  0  0 
 13 20  1  1  0  0  0 
 21 14  1  1  0  0  0 
 15 22  1  0  0  0  0 
 16 23  1  0  0  0  0 
 21 24  1  0  0  0  0 
 25 21  1  0  0  0  0 
 22 26  2  0  0  0  0 
 25 27  1  6  0  0  0 
 26 28  1  0  0  0  0 
 11 13  1  0  0  0  0 
 15 20  1  6  0  0  0 
 18 19  1  0  0  0  0 
 23 26  1  0  0  0  0 
 24 25  1  0  0  0  0 
M  END
> <ID>
CHEBI:225944

> <NAME>
Trichodermadiene

$$$$

CDK     1030232203

 33 38  0  0  0  0  0  0  0  0999 V2000
    1.4290    1.2375    0.0000 O   0  0  0  0  0  0  0  0  0  0  0  0
    2.1434    0.8250    0.0000 C   0  0  0  0  0  0  0  0  0  0  0  0
    2.1434    0.0000    0.0000 C   0  0  0  0  0  0  0  0  0  0  0  0
    2.8579    1.2375    0.0000 C   0  0  0  0  0  0  0  0  0  0  0  0
    2.8579   -0.4125    0.0000 C   0  0  0  0  0  0  0  0  0  0  0  0
    1.4290   -0.4125    0.0000 C   0  0  0  0  0  0  0  0  0  0  0  0
    3.5723    0.8250    0.0000 C   0  0  0  0  0  0  0  0  0  0  0  0
    2.8579    2.0625    0.0000 C   0  0  0  0  0  0  0  0  0  0  0  0
    3.5723    0.0000    0.0000 O   0  0  0  0  0  0  0  0  0  0  0  0
    2.8579   -1.2375    0.0000 C   0  0  0  0  0  0  0  0  0  0  0  0
    0.7144    0.0000    0.0000 O   0  0  0  0  0  0  0  0  0  0  0  0
    1.4290   -1.2375    0.0000 C   0  0  0  0  0  0  0  0  0  0  0  0
    4.2869    1.2375    0.0000 C   0  0  0  0  0  0  0  0  0  0  0  0
    2.1434    2.4750    0.0000 O   0  0  0  0  0  0  0  0  0  0  0  0
    3.5723    2.4750    0.0000 C   0  0  0  0  0  0  0  0  0  0  0  0
    2.1434   -1.6500    0.0000 C   0  0  0  0  0  0  0  0  0  0  0  0
    3.4709   -1.7895    0.0000 C   0  0  2  0  0  0  0  0  0  0  0  0
    0.0000   -0.4125    0.0000 C   0  0  1  0  0  0  0  0  0  0  0  0
    4.2869    2.0625    0.0000 C   0  0  0  0  0  0  0  0  0  0  0  0
    2.3150   -2.4569    0.0000 O   0  0  0  0  0  0  0  0  0  0  0  0
    4.2915   -1.8758    0.0000 C   0  0  0  0  0  0  0  0  0  0  0  0
    3.1354   -2.5432    0.0000 C   0  0  1  0  0  0  0  0  0  0  0  0
   -0.7144    0.0000    0.0000 O   0  0  0  0  0  0  0  0  0  0  0  0
    0.0000   -1.2375    0.0000 C   0  0  2  0  0  0  0  0  0  0  0  0
    4.4630   -2.6827    0.0000 C   0  0  0  0  0  0  0  0  0  0  0  0
    3.7486   -3.0952    0.0000 O   0  0  0  0  0  0  0  0  0  0  0  0
   -1.4290   -0.4125    0.0000 C   0  0  0  0  0  0  0  0  0  0  0  0
    0.7144   -1.6500    0.0000 O   0  0  0  0  0  0  0  0  0  0  0  0
   -0.7144   -1.6500    0.0000 C   0  0  2  0  0  0  0  0  0  0  0  0
   -1.4290   -1.2375    0.0000 C   0  0  1  0  0  0  0  0  0  0  0  0
   -0.7144   -2.4750    0.0000 O   0  0  0  0  0  0  0  0  0  0  0  0
   -2.1434   -1.6500    0.0000 O   0  0  0  0  0  0  0  0  0  0  0  0
   -2.1434   -2.4750    0.0000 C   0  0  0  0  0  0  0  0  0  0  0  0
  1  2  2  0  0  0  0 
  2  3  1  0  0  0  0 
  2  4  1  0  0  0  0 
  3  5  2  0  0  0  0 
  3  6  1  0  0  0  0 
  4  7  2  0  0  0  0 
  4  8  1  0  0  0  0 
  5  9  1  0  0  0  0 
  5 10  1  0  0  0  0 
  6 11  1  0  0  0  0 
  6 12  2  0  0  0  0 
  7 13  1  0  0  0  0 
  8 14  1  0  0  0  0 
  8 15  2  0  0  0  0 
 10 16  2  0  0  0  0 
 17 10  1  0  0  0  0 
 18 11  1  6  0  0  0 
 13 19  2  0  0  0  0 
 16 20  1  0  0  0  0 
 17 21  1  6  0  0  0 
 22 17  1  0  0  0  0 
 18 23  1  0  0  0  0 
 24 18  1  0  0  0  0 
 21 25  2  0  0  0  0 
 22 26  1  6  0  0  0 
 23 27  1  0  0  0  0 
 24 28  1  6  0  0  0 
 29 24  1  0  0  0  0 
 30 27  1  0  0  0  0 
 29 31  1  1  0  0  0 
 30 32  1  1  0  0  0 
 32 33  1  0  0  0  0 
  7  9  1  0  0  0  0 
 12 16  1  0  0  0  0 
 15 19  1  0  0  0  0 
 20 22  1  0  0  0  0 
 25 26  1  0  0  0  0 
 29 30  1  0  0  0  0 
M  END
> <ID>
CHEBI:226300

> <NAME>
(3S,7R)-11-[(2R,3R,4R,5S)-3,4-dihydroxy-5-methoxyoxan-2-yl]oxy-15-hydroxy-6,8,20-trioxapentacyclo[10.8.0.02,9.03,7.014,19]icosa-1,4,9,11,14,16,18-heptaen-13-one

$$$$

CDK     1030232203

 46 51  0  0  0  0  0  0  0  0999 V2000
   12.0997    1.3878    0.0000 O   0  0  0  0  0  0  0  0  0  0  0  0
   11.3461    1.0523    0.0000 C   0  0  0  0  0  0  0  0  0  0  0  0
   10.6786    1.5372    0.0000 C   0  0  0  0  0  0  0  0  0  0  0  0
   11.2598    0.2318    0.0000 C   0  0  0  0  0  0  0  0  0  0  0  0
    9.9250    1.2017    0.0000 C   0  0  0  0  0  0  0  0  0  0  0  0
   10.7649    2.3577    0.0000 C   0  0  0  0  0  0  0  0  0  0  0  0
   10.5061   -0.1038    0.0000 C   0  0  0  0  0  0  0  0  0  0  0  0
   11.9272   -0.2531    0.0000 C   0  0  0  0  0  0  0  0  0  0  0  0
    9.8387    0.3812    0.0000 O   0  0  0  0  0  0  0  0  0  0  0  0
    9.2575    1.6866    0.0000 C   0  0  0  0  0  0  0  0  0  0  0  0
   11.5185    2.6933    0.0000 O   0  0  0  0  0  0  0  0  0  0  0  0
   10.0974    2.8426    0.0000 C   0  0  0  0  0  0  0  0  0  0  0  0
   10.4199   -0.9242    0.0000 C   0  0  0  0  0  0  0  0  0  0  0  0
   12.6810    0.0824    0.0000 O   0  0  0  0  0  0  0  0  0  0  0  0
   11.8410   -1.0736    0.0000 C   0  0  0  0  0  0  0  0  0  0  0  0
    9.3437    2.5071    0.0000 C   0  0  0  0  0  0  0  0  0  0  0  0
    8.4505    1.5150    0.0000 C   0  0  2  0  0  0  0  0  0  0  0  0
   11.6048    3.5138    0.0000 C   0  0  0  0  0  0  0  0  0  0  0  0
    9.6662   -1.2598    0.0000 O   0  0  0  0  0  0  0  0  0  0  0  0
   11.0873   -1.4092    0.0000 C   0  0  0  0  0  0  0  0  0  0  0  0
    8.5900    2.8426    0.0000 O   0  0  0  0  0  0  0  0  0  0  0  0
    8.0380    2.2296    0.0000 C   0  0  2  0  0  0  0  0  0  0  0  0
    7.8985    0.9020    0.0000 C   0  0  0  0  0  0  0  0  0  0  0  0
    9.5800   -2.0803    0.0000 C   0  0  0  0  0  0  0  0  0  0  0  0
    7.2310    2.0580    0.0000 O   0  0  0  0  0  0  0  0  0  0  0  0
    7.1448    1.2375    0.0000 C   0  0  2  0  0  0  0  0  0  0  0  0
    6.4303    0.8250    0.0000 O   0  0  0  0  0  0  0  0  0  0  0  0
    5.7158    1.2375    0.0000 C   0  0  0  0  0  0  0  0  0  0  0  0
    5.7158    2.0625    0.0000 O   0  0  0  0  0  0  0  0  0  0  0  0
    5.0014    0.8250    0.0000 C   0  0  0  0  0  0  0  0  0  0  0  0
    4.2869    1.2375    0.0000 C   0  0  0  0  0  0  0  0  0  0  0  0
    5.0014    0.0000    0.0000 C   0  0  0  0  0  0  0  0  0  0  0  0
    3.5724    0.8250    0.0000 C   0  0  0  0  0  0  0  0  0  0  0  0
    4.2869   -0.4125    0.0000 C   0  0  0  0  0  0  0  0  0  0  0  0
    2.8579    1.2375    0.0000 O   0  0  0  0  0  0  0  0  0  0  0  0
    3.5724    0.0000    0.0000 C   0  0  0  0  0  0  0  0  0  0  0  0
    2.8579   -0.4125    0.0000 C   0  0  1  0  0  0  0  0  0  0  0  0
    2.4454   -1.1270    0.0000 O   0  0  0  0  0  0  0  0  0  0  0  0
    2.1434    0.0000    0.0000 C   0  0  0  0  0  0  0  0  0  0  0  0
    3.2704   -1.1270    0.0000 C   0  0  0  0  0  0  0  0  0  0  0  0
    1.4290   -0.4125    0.0000 C   0  0  0  0  0  0  0  0  0  0  0  0
    0.7145    0.0000    0.0000 C   0  0  0  0  0  0  0  0  0  0  0  0
    0.0000   -0.4125    0.0000 C   0  0  0  0  0  0  0  0  0  0  0  0
    0.4125   -1.1270    0.0000 O   0  0  0  0  0  0  0  0  0  0  0  0
   -0.7145   -0.8250    0.0000 C   0  0  0  0  0  0  0  0  0  0  0  0
   -0.4125    0.3020    0.0000 C   0  0  0  0  0  0  0  0  0  0  0  0
  1  2  2  0  0  0  0 
  2  3  1  0  0  0  0 
  2  4  1  0  0  0  0 
  3  5  2  0  0  0  0 
  3  6  1  0  0  0  0 
  4  7  2  0  0  0  0 
  4  8  1  0  0  0  0 
  5  9  1  0  0  0  0 
  5 10  1  0  0  0  0 
  6 11  1  0  0  0  0 
  6 12  2  0  0  0  0 
  7 13  1  0  0  0  0 
  8 14  1  0  0  0  0 
  8 15  2  0  0  0  0 
 10 16  2  0  0  0  0 
 17 10  1  0  0  0  0 
 11 18  1  0  0  0  0 
 13 19  1  0  0  0  0 
 13 20  2  0  0  0  0 
 16 21  1  0  0  0  0 
 22 17  1  0  0  0  0 
 17 23  1  1  0  0  0 
 19 24  1  0  0  0  0 
 22 25  1  1  0  0  0 
 26 23  1  0  0  0  0 
 26 27  1  1  0  0  0 
 27 28  1  0  0  0  0 
 28 29  2  0  0  0  0 
 28 30  1  0  0  0  0 
 30 31  2  0  0  0  0 
 30 32  1  0  0  0  0 
 31 33  1  0  0  0  0 
 32 34  2  0  0  0  0 
 33 35  1  0  0  0  0 
 33 36  2  0  0  0  0 
 37 36  1  0  0  0  0 
 37 38  1  1  0  0  0 
 37 39  1  0  0  0  0 
 37 40  1  0  0  0  0 
 39 41  1  0  0  0  0 
 41 42  1  0  0  0  0 
 42 43  1  0  0  0  0 
 43 44  1  0  0  0  0 
 43 45  1  0  0  0  0 
 43 46  1  0  0  0  0 
  7  9  1  0  0  0  0 
 12 16  1  0  0  0  0 
 15 20  1  0  0  0  0 
 21 22  1  0  0  0  0 
 25 26  1  0  0  0  0 
 34 36  1  0  0  0  0 
M  END
> <ID>
CHEBI:226698

> <NAME>
Aspertenol B

$$$$

CDK     1030232203

 46 51  0  0  0  0  0  0  0  0999 V2000
   12.0997    1.3878    0.0000 O   0  0  0  0  0  0  0  0  0  0  0  0
   11.3461    1.0523    0.0000 C   0  0  0  0  0  0  0  0  0  0  0  0
   10.6786    1.5372    0.0000 C   0  0  0  0  0  0  0  0  0  0  0  0
   11.2598    0.2318    0.0000 C   0  0  0  0  0  0  0  0  0  0  0  0
    9.9250    1.2017    0.0000 C   0  0  0  0  0  0  0  0  0  0  0  0
   10.7649    2.3577    0.0000 C   0  0  0  0  0  0  0  0  0  0  0  0
   10.5061   -0.1038    0.0000 C   0  0  0  0  0  0  0  0  0  0  0  0
   11.9272   -0.2531    0.0000 C   0  0  0  0  0  0  0  0  0  0  0  0
    9.8387    0.3812    0.0000 O   0  0  0  0  0  0  0  0  0  0  0  0
    9.2575    1.6866    0.0000 C   0  0  0  0  0  0  0  0  0  0  0  0
   11.5185    2.6933    0.0000 O   0  0  0  0  0  0  0  0  0  0  0  0
   10.0974    2.8426    0.0000 C   0  0  0  0  0  0  0  0  0  0  0  0
   10.4199   -0.9242    0.0000 C   0  0  0  0  0  0  0  0  0  0  0  0
   12.6810    0.0824    0.0000 O   0  0  0  0  0  0  0  0  0  0  0  0
   11.8410   -1.0736    0.0000 C   0  0  0  0  0  0  0  0  0  0  0  0
    9.3437    2.5071    0.0000 C   0  0  0  0  0  0  0  0  0  0  0  0
    8.4505    1.5150    0.0000 C   0  0  2  0  0  0  0  0  0  0  0  0
   11.6048    3.5138    0.0000 C   0  0  0  0  0  0  0  0  0  0  0  0
    9.6662   -1.2598    0.0000 O   0  0  0  0  0  0  0  0  0  0  0  0
   11.0873   -1.4092    0.0000 C   0  0  0  0  0  0  0  0  0  0  0  0
    8.5900    2.8426    0.0000 O   0  0  0  0  0  0  0  0  0  0  0  0
    8.0380    2.2296    0.0000 C   0  0  2  0  0  0  0  0  0  0  0  0
    7.8985    0.9020    0.0000 C   0  0  0  0  0  0  0  0  0  0  0  0
    9.5800   -2.0803    0.0000 C   0  0  0  0  0  0  0  0  0  0  0  0
    7.2310    2.0580    0.0000 O   0  0  0  0  0  0  0  0  0  0  0  0
    7.1448    1.2375    0.0000 C   0  0  1  0  0  0  0  0  0  0  0  0
    6.4303    0.8250    0.0000 O   0  0  0  0  0  0  0  0  0  0  0  0
    5.7158    1.2375    0.0000 C   0  0  0  0  0  0  0  0  0  0  0  0
    5.7158    2.0625    0.0000 O   0  0  0  0  0  0  0  0  0  0  0  0
    5.0014    0.8250    0.0000 C   0  0  0  0  0  0  0  0  0  0  0  0
    4.2869    1.2375    0.0000 C   0  0  0  0  0  0  0  0  0  0  0  0
    5.0014    0.0000    0.0000 C   0  0  0  0  0  0  0  0  0  0  0  0
    3.5724    0.8250    0.0000 C   0  0  0  0  0  0  0  0  0  0  0  0
    4.2869   -0.4125    0.0000 C   0  0  0  0  0  0  0  0  0  0  0  0
    2.8579    1.2375    0.0000 O   0  0  0  0  0  0  0  0  0  0  0  0
    3.5724    0.0000    0.0000 C   0  0  0  0  0  0  0  0  0  0  0  0
    2.8579   -0.4125    0.0000 C   0  0  1  0  0  0  0  0  0  0  0  0
    2.4454   -1.1270    0.0000 O   0  0  0  0  0  0  0  0  0  0  0  0
    2.1434    0.0000    0.0000 C   0  0  0  0  0  0  0  0  0  0  0  0
    3.2704   -1.1270    0.0000 C   0  0  0  0  0  0  0  0  0  0  0  0
    1.4290   -0.4125    0.0000 C   0  0  0  0  0  0  0  0  0  0  0  0
    0.7145    0.0000    0.0000 C   0  0  0  0  0  0  0  0  0  0  0  0
    0.0000   -0.4125    0.0000 C   0  0  0  0  0  0  0  0  0  0  0  0
    0.4125   -1.1270    0.0000 O   0  0  0  0  0  0  0  0  0  0  0  0
   -0.7145   -0.8250    0.0000 C   0  0  0  0  0  0  0  0  0  0  0  0
   -0.4125    0.3020    0.0000 C   0  0  0  0  0  0  0  0  0  0  0  0
  1  2  2  0  0  0  0 
  2  3  1  0  0  0  0 
  2  4  1  0  0  0  0 
  3  5  2  0  0  0  0 
  3  6  1  0  0  0  0 
  4  7  2  0  0  0  0 
  4  8  1  0  0  0  0 
  5  9  1  0  0  0  0 
  5 10  1  0  0  0  0 
  6 11  1  0  0  0  0 
  6 12  2  0  0  0  0 
  7 13  1  0  0  0  0 
  8 14  1  0  0  0  0 
  8 15  2  0  0  0  0 
 10 16  2  0  0  0  0 
 17 10  1  0  0  0  0 
 11 18  1  0  0  0  0 
 13 19  1  0  0  0  0 
 13 20  2  0  0  0  0 
 16 21  1  0  0  0  0 
 22 17  1  0  0  0  0 
 17 23  1  1  0  0  0 
 19 24  1  0  0  0  0 
 22 25  1  1  0  0  0 
 26 23  1  0  0  0  0 
 26 27  1  6  0  0  0 
 27 28  1  0  0  0  0 
 28 29  2  0  0  0  0 
 28 30  1  0  0  0  0 
 30 31  2  0  0  0  0 
 30 32  1  0  0  0  0 
 31 33  1  0  0  0  0 
 32 34  2  0  0  0  0 
 33 35  1  0  0  0  0 
 33 36  2  0  0  0  0 
 37 36  1  0  0  0  0 
 37 38  1  1  0  0  0 
 37 39  1  0  0  0  0 
 37 40  1  0  0  0  0 
 39 41  1  0  0  0  0 
 41 42  1  0  0  0  0 
 42 43  1  0  0  0  0 
 43 44  1  0  0  0  0 
 43 45  1  0  0  0  0 
 43 46  1  0  0  0  0 
  7  9  1  0  0  0  0 
 12 16  1  0  0  0  0 
 15 20  1  0  0  0  0 
 21 22  1  0  0  0  0 
 25 26  1  0  0  0  0 
 34 36  1  0  0  0  0 
M  END
> <ID>
CHEBI:226704

> <NAME>
Aspertenol C

$$$$

CDK     1030232203

 22 25  0  0  0  0  0  0  0  0999 V2000
    2.1277   -1.6847    0.0000 O   0  0  0  0  0  0  0  0  0  0  0  0
    2.1483   -0.8333    0.0000 C   0  0  2  0  0  0  0  0  0  0  0  0
    1.1096   -2.1651    0.0000 C   0  0  1  0  0  0  0  0  0  0  0  0
    2.8576   -0.4424    0.0000 C   0  0  0  0  0  0  0  0  0  0  0  0
    1.4141   -0.3925    0.0000 C   0  0  1  0  0  0  0  0  0  0  0  0
    1.2130   -1.3466    0.0000 C   0  0  1  0  0  0  0  0  0  0  0  0
    0.2993   -2.3197    0.0000 C   0  0  2  0  0  0  0  0  0  0  0  0
    2.8748    0.3825    0.0000 C   0  0  0  0  0  0  0  0  0  0  0  0
    0.4665   -0.9953    0.0000 C   0  0  2  0  0  0  0  0  0  0  0  0
    1.4462    0.4123    0.0000 C   0  0  1  0  0  0  0  0  0  0  0  0
    0.7145    0.0000    0.0000 C   0  0  0  0  0  0  0  0  0  0  0  0
    1.9498   -1.3376    0.0000 O   0  0  0  0  0  0  0  0  0  0  0  0
    1.6451   -0.7037    0.0000 C   0  0  0  0  0  0  0  0  0  0  0  0
   -0.0520   -3.0662    0.0000 O   0  0  0  0  0  0  0  0  0  0  0  0
   -0.0982   -1.5967    0.0000 C   0  0  2  0  0  0  0  0  0  0  0  0
    2.1691    0.8098    0.0000 C   0  0  2  0  0  0  0  0  0  0  0  0
    3.5978    0.7800    0.0000 C   0  0  0  0  0  0  0  0  0  0  0  0
   -0.1427   -0.3840    0.0000 C   0  0  0  0  0  0  0  0  0  0  0  0
    0.7405    0.8397    0.0000 O   0  0  0  0  0  0  0  0  0  0  0  0
    0.1586   -0.2841    0.0000 O   0  0  0  0  0  0  0  0  0  0  0  0
   -0.9167   -1.4934    0.0000 O   0  0  0  0  0  0  0  0  0  0  0  0
    2.1864    1.6346    0.0000 O   0  0  0  0  0  0  0  0  0  0  0  0
  2  1  1  1  0  0  0 
  3  1  1  6  0  0  0 
  2  4  1  0  0  0  0 
  5  2  1  0  0  0  0 
  6  3  1  0  0  0  0 
  7  3  1  0  0  0  0 
  4  8  2  0  0  0  0 
  9  5  1  0  0  0  0 
 10  5  1  0  0  0  0 
  5 11  1  6  0  0  0 
  6 12  1  1  0  0  0 
  6 13  1  0  0  0  0 
  7 14  1  6  0  0  0 
 15  7  1  0  0  0  0 
 16  8  1  0  0  0  0 
  8 17  1  0  0  0  0 
  9 18  1  1  0  0  0 
 10 19  1  6  0  0  0 
 11 20  1  0  0  0  0 
 15 21  1  1  0  0  0 
 16 22  1  6  0  0  0 
  6  9  1  0  0  0  0 
  9 15  1  0  0  0  0 
 10 16  1  0  0  0  0 
 12 13  1  0  0  0  0 
M  END
> <ID>
CHEBI:226784

> <NAME>
Pentahydroxyscirpene

$$$$

CDK     1030232203

 28 32  0  0  0  0  0  0  0  0999 V2000
    7.0983    0.1503    0.0000 O   0  0  0  0  0  0  0  0  0  0  0  0
    6.3447   -0.1852    0.0000 C   0  0  0  0  0  0  0  0  0  0  0  0
    5.6772    0.2997    0.0000 C   0  0  0  0  0  0  0  0  0  0  0  0
    6.2584   -1.0057    0.0000 C   0  0  0  0  0  0  0  0  0  0  0  0
    4.9236   -0.0359    0.0000 C   0  0  0  0  0  0  0  0  0  0  0  0
    5.7635    1.1202    0.0000 C   0  0  0  0  0  0  0  0  0  0  0  0
    5.5048   -1.3413    0.0000 C   0  0  0  0  0  0  0  0  0  0  0  0
    6.9259   -1.4906    0.0000 C   0  0  0  0  0  0  0  0  0  0  0  0
    4.8373   -0.8564    0.0000 O   0  0  0  0  0  0  0  0  0  0  0  0
    4.2561    0.4491    0.0000 C   0  0  0  0  0  0  0  0  0  0  0  0
    6.5171    1.4557    0.0000 O   0  0  0  0  0  0  0  0  0  0  0  0
    5.0961    1.6051    0.0000 C   0  0  0  0  0  0  0  0  0  0  0  0
    5.4185   -2.1617    0.0000 C   0  0  0  0  0  0  0  0  0  0  0  0
    7.6796   -1.1551    0.0000 O   0  0  0  0  0  0  0  0  0  0  0  0
    6.8397   -2.3111    0.0000 C   0  0  0  0  0  0  0  0  0  0  0  0
    4.3423    1.2696    0.0000 C   0  0  0  0  0  0  0  0  0  0  0  0
    3.4491    0.2775    0.0000 C   0  0  0  0  0  0  0  0  0  0  0  0
    6.6034    2.2762    0.0000 C   0  0  0  0  0  0  0  0  0  0  0  0
    6.0859   -2.6467    0.0000 C   0  0  0  0  0  0  0  0  0  0  0  0
    3.5887    1.6051    0.0000 O   0  0  0  0  0  0  0  0  0  0  0  0
    3.0366    0.9920    0.0000 C   0  0  0  0  0  0  0  0  0  0  0  0
    2.8971   -0.3356    0.0000 C   0  0  0  0  0  0  0  0  0  0  0  0
    2.2297    0.8205    0.0000 O   0  0  0  0  0  0  0  0  0  0  0  0
    2.1434    0.0000    0.0000 C   0  0  0  0  0  0  0  0  0  0  0  0
    1.4290   -0.4125    0.0000 O   0  0  0  0  0  0  0  0  0  0  0  0
    0.7145    0.0000    0.0000 C   0  0  0  0  0  0  0  0  0  0  0  0
    0.7145    0.8250    0.0000 O   0  0  0  0  0  0  0  0  0  0  0  0
    0.0000   -0.4125    0.0000 C   0  0  0  0  0  0  0  0  0  0  0  0
  1  2  2  0  0  0  0 
  2  3  1  0  0  0  0 
  2  4  1  0  0  0  0 
  3  5  2  0  0  0  0 
  3  6  1  0  0  0  0 
  4  7  2  0  0  0  0 
  4  8  1  0  0  0  0 
  5  9  1  0  0  0  0 
  5 10  1  0  0  0  0 
  6 11  1  0  0  0  0 
  6 12  2  0  0  0  0 
  7 13  1  0  0  0  0 
  8 14  1  0  0  0  0 
  8 15  2  0  0  0  0 
 10 16  2  0  0  0  0 
 10 17  1  0  0  0  0 
 11 18  1  0  0  0  0 
 13 19  2  0  0  0  0 
 16 20  1  0  0  0  0 
 17 21  1  0  0  0  0 
 17 22  1  0  0  0  0 
 21 23  1  0  0  0  0 
 22 24  1  0  0  0  0 
 24 25  1  0  0  0  0 
 25 26  1  0  0  0  0 
 26 27  2  0  0  0  0 
 26 28  1  0  0  0  0 
  7  9  1  0  0  0  0 
 12 16  1  0  0  0  0 
 15 19  1  0  0  0  0 
 20 21  1  0  0  0  0 
 23 24  1  0  0  0  0 
M  END
> <ID>
CHEBI:226833

> <NAME>
Acyl-hemiacetal sterigmatocystin

$$$$

CDK     1030232203

 26 30  0  0  0  0  0  0  0  0999 V2000
    1.4290    1.2375    0.0000 O   0  0  0  0  0  0  0  0  0  0  0  0
    2.1435    0.8250    0.0000 C   0  0  0  0  0  0  0  0  0  0  0  0
    2.1435    0.0000    0.0000 C   0  0  0  0  0  0  0  0  0  0  0  0
    2.8579    1.2375    0.0000 C   0  0  0  0  0  0  0  0  0  0  0  0
    2.8579   -0.4125    0.0000 C   0  0  0  0  0  0  0  0  0  0  0  0
    1.4290   -0.4125    0.0000 C   0  0  0  0  0  0  0  0  0  0  0  0
    3.5724    0.8250    0.0000 C   0  0  0  0  0  0  0  0  0  0  0  0
    2.8579    2.0625    0.0000 C   0  0  0  0  0  0  0  0  0  0  0  0
    3.5724    0.0000    0.0000 O   0  0  0  0  0  0  0  0  0  0  0  0
    2.8579   -1.2375    0.0000 C   0  0  0  0  0  0  0  0  0  0  0  0
    0.7145    0.0000    0.0000 O   0  0  0  0  0  0  0  0  0  0  0  0
    1.4290   -1.2375    0.0000 C   0  0  0  0  0  0  0  0  0  0  0  0
    4.2870    1.2375    0.0000 C   0  0  0  0  0  0  0  0  0  0  0  0
    2.1435    2.4751    0.0000 O   0  0  0  0  0  0  0  0  0  0  0  0
    3.5724    2.4751    0.0000 C   0  0  0  0  0  0  0  0  0  0  0  0
    2.1435   -1.6500    0.0000 C   0  0  0  0  0  0  0  0  0  0  0  0
    3.4710   -1.7895    0.0000 C   0  0  0  0  0  0  0  0  0  0  0  0
    0.0000   -0.4125    0.0000 C   0  0  0  0  0  0  0  0  0  0  0  0
    5.0014    0.8250    0.0000 O   0  0  0  0  0  0  0  0  0  0  0  0
    4.2870    2.0625    0.0000 C   0  0  0  0  0  0  0  0  0  0  0  0
    2.3150   -2.4570    0.0000 O   0  0  0  0  0  0  0  0  0  0  0  0
    3.1355   -2.5433    0.0000 C   0  0  0  0  0  0  0  0  0  0  0  0
    4.2916   -1.8758    0.0000 C   0  0  0  0  0  0  0  0  0  0  0  0
    5.7159    1.2375    0.0000 C   0  0  0  0  0  0  0  0  0  0  0  0
    3.7486   -3.0953    0.0000 O   0  0  0  0  0  0  0  0  0  0  0  0
    4.4631   -2.6828    0.0000 C   0  0  0  0  0  0  0  0  0  0  0  0
  1  2  2  0  0  0  0 
  2  3  1  0  0  0  0 
  2  4  1  0  0  0  0 
  3  5  2  0  0  0  0 
  3  6  1  0  0  0  0 
  4  7  2  0  0  0  0 
  4  8  1  0  0  0  0 
  5  9  1  0  0  0  0 
  5 10  1  0  0  0  0 
  6 11  1  0  0  0  0 
  6 12  2  0  0  0  0 
  7 13  1  0  0  0  0 
  8 14  1  0  0  0  0 
  8 15  2  0  0  0  0 
 10 16  2  0  0  0  0 
 10 17  1  0  0  0  0 
 11 18  1  0  0  0  0 
 13 19  1  0  0  0  0 
 13 20  2  0  0  0  0 
 16 21  1  0  0  0  0 
 17 22  1  0  0  0  0 
 17 23  1  0  0  0  0 
 19 24  1  0  0  0  0 
 22 25  1  0  0  0  0 
 23 26  1  0  0  0  0 
  7  9  1  0  0  0  0 
 12 16  1  0  0  0  0 
 15 20  1  0  0  0  0 
 21 22  1  0  0  0  0 
 25 26  1  0  0  0  0 
M  END
> <ID>
CHEBI:226838

> <NAME>
5-methoxydihydrosterigmatocystin

$$$$

CDK     1030232203

 24 27  0  0  0  0  0  0  0  0999 V2000
    2.1435    0.8250    0.0000 O   0  0  0  0  0  0  0  0  0  0  0  0
    2.1435    0.0000    0.0000 C   0  0  0  0  0  0  0  0  0  0  0  0
    2.8579   -0.4125    0.0000 O   0  0  0  0  0  0  0  0  0  0  0  0
    1.4290   -0.4125    0.0000 C   0  0  0  0  0  0  0  0  0  0  0  0
    3.5724    0.0000    0.0000 C   0  0  1  0  0  0  0  0  0  0  0  0
    0.7145    0.0000    0.0000 C   0  0  0  0  0  0  0  0  0  0  0  0
    4.3261   -0.3355    0.0000 C   0  0  2  0  0  0  0  0  0  0  0  0
    3.6587    0.8205    0.0000 C   0  0  0  0  0  0  0  0  0  0  0  0
    0.7145    0.8250    0.0000 C   0  0  0  0  0  0  0  0  0  0  0  0
    5.4332   -0.5241    0.0000 C   0  0  2  0  0  0  0  0  0  0  0  0
    4.8782    0.2775    0.0000 C   0  0  2  0  0  0  0  0  0  0  0  0
    4.0960   -1.1278    0.0000 C   0  0  0  0  0  0  0  0  0  0  0  0
    4.4657    0.9920    0.0000 C   0  0  2  0  0  0  0  0  0  0  0  0
    5.9392    0.1668    0.0000 C   0  0  2  0  0  0  0  0  0  0  0  0
    5.7748   -1.2535    0.0000 C   0  0  0  0  0  0  0  0  0  0  0  0
    4.9405   -1.1570    0.0000 C   0  0  0  0  0  0  0  0  0  0  0  0
    5.5256   -0.1477    0.0000 O   0  0  0  0  0  0  0  0  0  0  0  0
    5.5608    0.5548    0.0000 C   0  0  0  0  0  0  0  0  0  0  0  0
    5.5903    0.9437    0.0000 O   0  0  0  0  0  0  0  0  0  0  0  0
    6.7447    0.0813    0.0000 C   0  0  0  0  0  0  0  0  0  0  0  0
    6.5953   -1.3397    0.0000 C   0  0  0  0  0  0  0  0  0  0  0  0
    7.0802   -0.6723    0.0000 C   0  0  0  0  0  0  0  0  0  0  0  0
    7.9007   -0.7585    0.0000 C   0  0  0  0  0  0  0  0  0  0  0  0
    8.3856   -0.0911    0.0000 O   0  0  0  0  0  0  0  0  0  0  0  0
  1  2  2  0  0  0  0 
  2  3  1  0  0  0  0 
  2  4  1  0  0  0  0 
  5  3  1  6  0  0  0 
  4  6  2  0  0  0  0 
  7  5  1  0  0  0  0 
  5  8  1  0  0  0  0 
  6  9  1  0  0  0  0 
 10  7  1  0  0  0  0 
 11  7  1  0  0  0  0 
  7 12  1  6  0  0  0 
 13  8  1  0  0  0  0 
 14 10  1  0  0  0  0 
 10 15  1  0  0  0  0 
 10 16  1  1  0  0  0 
 11 17  1  6  0  0  0 
 11 18  1  0  0  0  0 
 13 19  1  1  0  0  0 
 14 20  1  0  0  0  0 
 15 21  1  0  0  0  0 
 20 22  2  0  0  0  0 
 22 23  1  0  0  0  0 
 23 24  1  0  0  0  0 
 11 13  1  0  0  0  0 
 14 19  1  6  0  0  0 
 17 18  1  0  0  0  0 
 21 22  1  0  0  0  0 
M  END
> <ID>
CHEBI:227052

> <NAME>
4-((Z)-but-2-enoyloxy)-12,13-epoxy-16-hydroxytrichothec-9-ene

$$$$

CDK     1030232203

 37 41  0  0  0  0  0  0  0  0999 V2000
    1.1938   -3.5878    0.0000 O   0  0  0  0  0  0  0  0  0  0  0  0
    0.6112   -3.0037    0.0000 C   0  0  0  0  0  0  0  0  0  0  0  0
    1.0915   -2.3329    0.0000 O   0  0  0  0  0  0  0  0  0  0  0  0
   -0.0609   -3.4822    0.0000 C   0  0  0  0  0  0  0  0  0  0  0  0
    1.3915   -1.5444    0.0000 C   0  0  0  0  0  0  0  0  0  0  0  0
   -0.8519   -3.7165    0.0000 C   0  0  0  0  0  0  0  0  0  0  0  0
    1.3830   -0.9024    0.0000 C   0  0  0  0  0  0  0  0  0  0  0  0
   -1.6762   -3.6813    0.0000 C   0  0  0  0  0  0  0  0  0  0  0  0
   -0.7509   -4.5354    0.0000 C   0  0  0  0  0  0  0  0  0  0  0  0
    0.7144    0.0000    0.0000 C   0  0  2  0  0  0  0  0  0  0  0  0
    2.2264   -0.7539    0.0000 C   0  0  0  0  0  0  0  0  0  0  0  0
    1.0265   -1.6697    0.0000 C   0  0  0  0  0  0  0  0  0  0  0  0
   -2.4443   -3.3804    0.0000 C   0  0  0  0  0  0  0  0  0  0  0  0
    1.5372    0.0604    0.0000 C   0  0  1  0  0  0  0  0  0  0  0  0
    0.4028    0.7639    0.0000 C   0  0  2  0  0  0  0  0  0  0  0  0
    0.0000   -0.4125    0.0000 C   0  0  0  0  0  0  0  0  0  0  0  0
    2.5123    0.0483    0.0000 O   0  0  0  0  0  0  0  0  0  0  0  0
    2.7486   -1.3730    0.0000 C   0  0  0  0  0  0  0  0  0  0  0  0
    1.6571   -2.2954    0.0000 C   0  0  0  0  0  0  0  0  0  0  0  0
   -3.0731   -2.8463    0.0000 O   0  0  0  0  0  0  0  0  0  0  0  0
    1.7101   -0.6946    0.0000 O   0  0  0  0  0  0  0  0  0  0  0  0
    1.7341    0.8615    0.0000 C   0  0  2  0  0  0  0  0  0  0  0  0
    2.2218   -0.2119    0.0000 C   0  0  0  0  0  0  0  0  0  0  0  0
   -0.2444    1.1043    0.0000 O   0  0  0  0  0  0  0  0  0  0  0  0
    1.0329    1.2963    0.0000 C   0  0  0  0  0  0  0  0  0  0  0  0
    2.4691   -2.1493    0.0000 C   0  0  0  0  0  0  0  0  0  0  0  0
   -3.4945   -2.1371    0.0000 C   0  0  2  0  0  0  0  0  0  0  0  0
   -1.0516    1.2747    0.0000 C   0  0  0  0  0  0  0  0  0  0  0  0
    3.0015   -2.7794    0.0000 C   0  0  0  0  0  0  0  0  0  0  0  0
   -3.6627   -1.3294    0.0000 C   0  0  1  0  0  0  0  0  0  0  0  0
   -4.2634   -2.4359    0.0000 C   0  0  0  0  0  0  0  0  0  0  0  0
   -1.0164    2.0989    0.0000 O   0  0  0  0  0  0  0  0  0  0  0  0
   -1.8704    1.1737    0.0000 C   0  0  0  0  0  0  0  0  0  0  0  0
   -4.4870   -1.3624    0.0000 O   0  0  0  0  0  0  0  0  0  0  0  0
   -3.5595   -0.5108    0.0000 C   0  0  0  0  0  0  0  0  0  0  0  0
   -2.6120    0.8124    0.0000 C   0  0  0  0  0  0  0  0  0  0  0  0
   -3.1962    0.2298    0.0000 C   0  0  0  0  0  0  0  0  0  0  0  0
  1  2  2  0  0  0  0 
  2  3  1  0  0  0  0 
  2  4  1  0  0  0  0 
  3  5  1  0  0  0  0 
  4  6  2  0  0  0  0 
  5  7  1  0  0  0  0 
  6  8  1  0  0  0  0 
  6  9  1  0  0  0  0 
 10  7  1  0  0  0  0 
  7 11  1  0  0  0  0 
  7 12  1  0  0  0  0 
  8 13  1  0  0  0  0 
 14 10  1  0  0  0  0 
 15 10  1  0  0  0  0 
 10 16  1  6  0  0  0 
 11 17  1  0  0  0  0 
 11 18  1  0  0  0  0 
 12 19  1  0  0  0  0 
 13 20  1  0  0  0  0 
 14 21  1  6  0  0  0 
 22 14  1  0  0  0  0 
 14 23  1  0  0  0  0 
 15 24  1  6  0  0  0 
 15 25  1  0  0  0  0 
 18 26  2  0  0  0  0 
 27 20  1  0  0  0  0 
 24 28  1  0  0  0  0 
 26 29  1  0  0  0  0 
 30 27  1  0  0  0  0 
 27 31  1  1  0  0  0 
 28 32  2  0  0  0  0 
 28 33  1  0  0  0  0 
 30 34  1  1  0  0  0 
 30 35  1  0  0  0  0 
 33 36  2  0  0  0  0 
 35 37  2  0  0  0  0 
 22 17  1  1  0  0  0 
 19 26  1  0  0  0  0 
 21 23  1  0  0  0  0 
 22 25  1  0  0  0  0 
 36 37  1  0  0  0  0 
M  END
> <ID>
CHEBI:227095

> <NAME>
Isororidin P

$$$$
10038552
  CDK     0105241540

 21 24  0  0  0  0  0  0  0  0999 V2000
    1.7237   -0.5147    0.0000 O   0  0  0  0  0  0  0  0  0  0  0  0
    4.7971    0.5570    0.0000 O   0  0  0  0  0  0  0  0  0  0  0  0
    4.9312    1.6805    0.0000 O   0  0  0  0  0  0  0  0  0  0  0  0
    3.7574   -1.8803    0.0000 O   0  0  0  0  0  0  0  0  0  0  0  0
    3.3917    0.0383    0.0000 C   0  0  1  0  0  0  0  0  0  0  0  0
    2.2837    0.0453    0.0000 C   0  0  2  0  0  0  0  0  0  0  0  0
    4.3588   -0.6472    0.0000 C   0  0  2  0  0  0  0  0  0  0  0  0
    3.1867    0.8034    0.0000 C   0  0  1  0  0  0  0  0  0  0  0  0
    4.1662    1.4756    0.0000 C   0  0  1  0  0  0  0  0  0  0  0  0
    1.5186    0.2504    0.0000 C   0  0  0  0  0  0  0  0  0  0  0  0
    3.4803    1.8716    0.0000 C   0  0  0  0  0  0  0  0  0  0  0  0
    5.0155   -0.2043    0.0000 C   0  0  1  0  0  0  0  0  0  0  0  0
    3.1867   -0.7267    0.0000 C   0  0  0  0  0  0  0  0  0  0  0  0
    4.4037   -1.4710    0.0000 C   0  0  0  0  0  0  0  0  0  0  0  0
    3.7022   -1.0902    0.0000 C   0  0  0  0  0  0  0  0  0  0  0  0
    5.7624   -0.5546    0.0000 C   0  0  0  0  0  0  0  0  0  0  0  0
    5.1424   -1.8385    0.0000 C   0  0  0  0  0  0  0  0  0  0  0  0
    5.8264   -1.3771    0.0000 C   0  0  0  0  0  0  0  0  0  0  0  0
    6.5396   -1.7216    0.0000 C   0  0  0  0  0  0  0  0  0  0  0  0
    3.0125    1.4537    0.0000 H   0  0  0  0  0  0  0  0  0  0  0  0
    5.5735    0.1721    0.0000 H   0  0  0  0  0  0  0  0  0  0  0  0
  6  1  1  1  0  0  0 
  1 10  1  0  0  0  0 
  2  8  1  0  0  0  0 
  2 12  1  0  0  0  0 
  9  3  1  1  0  0  0 
  4 15  1  0  0  0  0 
  5  6  1  0  0  0  0 
  5  7  1  0  0  0  0 
  5  9  1  0  0  0  0 
  5 13  1  1  0  0  0 
  6  8  1  0  0  0  0 
  6 10  1  0  0  0  0 
  7 12  1  0  0  0  0 
  7 14  1  0  0  0  0 
  7 15  1  1  0  0  0 
  8 11  1  0  0  0  0 
  8 20  1  6  0  0  0 
  9 11  1  0  0  0  0 
 12 16  1  0  0  0  0 
 12 21  1  1  0  0  0 
 14 17  1  0  0  0  0 
 16 18  2  0  0  0  0 
 17 18  1  0  0  0  0 
 18 19  1  0  0  0  0 
M  END
> <ID>
CHEBI:228528

> <NAME>
Verrucarol

$$$$
56843811
  CDK     0425242201

 38 42  0  0  0  0  0  0  0  0999 V2000
    5.7269   -3.1961    0.0000 O   0  0  0  0  0  0  0  0  0  0  0  0
    5.7854   -1.9300    0.0000 O   0  0  0  0  0  0  0  0  0  0  0  0
    5.1749   -0.5990    0.0000 O   0  0  0  0  0  0  0  0  0  0  0  0
    3.3060   -1.7267    0.0000 O   0  0  0  0  0  0  0  0  0  0  0  0
    6.2368    0.3571    0.0000 O   0  0  0  0  0  0  0  0  0  0  0  0
    1.9470   -1.2852    0.0000 O   0  0  0  0  0  0  0  0  0  0  0  0
    3.4964    0.8138    0.0000 O   0  0  0  0  0  0  0  0  0  0  0  0
    2.4147    2.4664    0.0000 O   0  0  0  0  0  0  0  0  0  0  0  0
    2.9246    4.0356    0.0000 O   0  0  0  0  0  0  0  0  0  0  0  0
    5.4719   -1.9967    0.0000 C   0  0  0  0  0  0  0  0  0  0  0  0
    6.1394   -2.4816    0.0000 C   0  0  0  0  0  0  0  0  0  0  0  0
    4.6650   -2.1682    0.0000 C   0  0  0  0  0  0  0  0  0  0  0  0
    6.8068   -1.9967    0.0000 C   0  0  0  0  0  0  0  0  0  0  0  0
    5.7269   -1.2121    0.0000 C   0  0  0  0  0  0  0  0  0  0  0  0
    6.5519   -3.1961    0.0000 C   0  0  0  0  0  0  0  0  0  0  0  0
    6.5519   -1.2121    0.0000 C   0  0  0  0  0  0  0  0  0  0  0  0
    5.2170   -2.7813    0.0000 C   0  0  0  0  0  0  0  0  0  0  0  0
    5.8274   -2.8763    0.0000 C   0  0  0  0  0  0  0  0  0  0  0  0
    3.8580   -2.3397    0.0000 C   0  0  0  0  0  0  0  0  0  0  0  0
    4.1130   -1.5552    0.0000 C   0  0  0  0  0  0  0  0  0  0  0  0
    4.9621   -3.5659    0.0000 C   0  0  0  0  0  0  0  0  0  0  0  0
    3.6031   -3.1244    0.0000 C   0  0  0  0  0  0  0  0  0  0  0  0
    4.1551   -3.7374    0.0000 C   0  0  0  0  0  0  0  0  0  0  0  0
    5.4298    0.1856    0.0000 C   0  0  0  0  0  0  0  0  0  0  0  0
    3.9002   -4.5221    0.0000 C   0  0  0  0  0  0  0  0  0  0  0  0
    2.7540   -1.1136    0.0000 C   0  0  0  0  0  0  0  0  0  0  0  0
    4.8778    0.7987    0.0000 C   0  0  0  0  0  0  0  0  0  0  0  0
    3.0090   -0.3290    0.0000 C   0  0  0  0  0  0  0  0  0  0  0  0
    5.1327    1.5833    0.0000 C   0  0  0  0  0  0  0  0  0  0  0  0
    2.4570    0.2841    0.0000 C   0  0  0  0  0  0  0  0  0  0  0  0
    4.5807    2.1964    0.0000 C   0  0  0  0  0  0  0  0  0  0  0  0
    2.7119    1.0687    0.0000 C   0  0  0  0  0  0  0  0  0  0  0  0
    1.6500    0.1125    0.0000 C   0  0  0  0  0  0  0  0  0  0  0  0
    3.7737    2.0248    0.0000 C   0  0  0  0  0  0  0  0  0  0  0  0
    2.1598    1.6818    0.0000 C   0  0  0  0  0  0  0  0  0  0  0  0
    3.2217    2.6379    0.0000 C   0  0  0  0  0  0  0  0  0  0  0  0
    3.4766    3.4225    0.0000 C   0  0  0  0  0  0  0  0  0  0  0  0
    4.2836    3.5940    0.0000 C   0  0  0  0  0  0  0  0  0  0  0  0
  1 11  1  0  0  0  0 
  1 15  1  0  0  0  0 
  2 13  1  0  0  0  0 
  2 17  1  0  0  0  0 
  3 14  1  0  0  0  0 
  3 24  1  0  0  0  0 
  4 20  1  0  0  0  0 
  4 26  1  0  0  0  0 
  5 24  2  0  0  0  0 
  6 26  2  0  0  0  0 
  7 32  1  0  0  0  0 
  8 35  1  0  0  0  0 
  8 36  1  0  0  0  0 
  9 37  1  0  0  0  0 
 10 11  1  0  0  0  0 
 10 12  1  0  0  0  0 
 10 14  1  0  0  0  0 
 10 18  1  0  0  0  0 
 11 13  1  0  0  0  0 
 11 15  1  0  0  0  0 
 12 17  1  0  0  0  0 
 12 19  1  0  0  0  0 
 12 20  1  0  0  0  0 
 13 16  1  0  0  0  0 
 14 16  1  0  0  0  0 
 17 21  1  0  0  0  0 
 19 22  1  0  0  0  0 
 21 23  2  0  0  0  0 
 22 23  1  0  0  0  0 
 23 25  1  0  0  0  0 
 24 27  1  0  0  0  0 
 26 28  1  0  0  0  0 
 27 29  2  0  0  0  0 
 28 30  2  3  0  0  0 
 29 31  1  0  0  0  0 
 30 32  1  0  0  0  0 
 30 33  1  0  0  0  0 
 31 34  2  0  0  0  0 
 32 35  1  0  0  0  0 
 34 36  1  0  0  0  0 
 36 37  1  0  0  0  0 
 37 38  1  0  0  0  0 
M  END
> <ID>
CHEBI:230834

> <NAME>
Myotoxin A

$$$$

Mrv0541 04241413252D          

 22 24  0  0  0  0            999 V2000
    1.9366   -2.1079    0.0000 N   0  0  0  0  0  0  0  0  0  0  0  0
    1.9366   -2.9329    0.0000 C   0  0  0  0  0  0  0  0  0  0  0  0
    2.6510   -3.3454    0.0000 N   0  0  0  0  0  0  0  0  0  0  0  0
    3.3654   -2.9329    0.0000 C   0  0  2  0  0  0  0  0  0  0  0  0
    3.3654   -2.1079    0.0000 C   0  0  2  0  0  0  0  0  0  0  0  0
    2.6510   -1.6954    0.0000 C   0  0  2  0  0  0  0  0  0  0  0  0
    4.1501   -3.1464    0.0000 N   0  0  0  0  0  0  0  0  0  0  0  0
    4.6351   -2.5204    0.0000 C   0  0  0  0  0  0  0  0  0  0  0  0
    4.1501   -1.8529    0.0000 N   0  0  0  0  0  0  0  0  0  0  0  0
    2.6510   -0.8704    0.0000 C   0  0  0  0  0  0  0  0  0  0  0  0
    3.3665   -1.2829    0.0000 H   0  0  0  0  0  0  0  0  0  0  0  0
    5.4566   -2.5204    0.0000 N   0  0  0  0  0  0  0  0  0  0  0  0
    1.2221   -3.3454    0.0000 N   0  0  0  0  0  0  0  0  0  0  0  0
    1.9370   -0.4581    0.0000 O   0  0  0  0  0  0  0  0  0  0  0  0
    1.9312    0.3698    0.0000 C   0  0  0  0  0  0  0  0  0  0  0  0
    1.2145    0.7770    0.0000 N   0  0  0  0  0  0  0  0  0  0  0  0
    2.6421    0.7869    0.0000 O   0  0  0  0  0  0  0  0  0  0  0  0
    3.5891   -3.7614    0.0000 C   0  0  0  0  0  0  0  0  0  0  0  0
    3.1219   -4.3081    0.0000 C   0  0  0  0  0  0  0  0  0  0  0  0
    2.2770   -4.2981    0.0000 C   0  0  0  0  0  0  0  0  0  0  0  0
    4.4439   -4.1291    0.0000 O   0  0  0  0  0  0  0  0  0  0  0  0
    3.5394   -4.5069    0.0000 O   0  0  0  0  0  0  0  0  0  0  0  0
  1  2  1  0  0  0  0
  2  3  1  0  0  0  0
  3  4  1  0  0  0  0
  4  5  1  0  0  0  0
  5  6  1  0  0  0  0
  1  6  1  0  0  0  0
  4  7  1  0  0  0  0
  7  8  1  0  0  0  0
  8  9  1  0  0  0  0
  5  9  1  0  0  0  0
  6 10  1  1  0  0  0
  5 11  1  1  0  0  0
  8 12  2  0  0  0  0
  2 13  2  0  0  0  0
 10 14  1  0  0  0  0
 14 15  1  0  0  0  0
 15 16  1  0  0  0  0
 15 17  2  0  0  0  0
  4 18  1  1  0  0  0
 18 19  1  0  0  0  0
 19 20  1  0  0  0  0
  3 20  1  0  0  0  0
 18 21  1  0  0  0  0
 18 22  1  0  0  0  0
M  END
> <ID>
CHEBI:34970

> <NAME>
saxitoxin

$$$$

Ketcher 10082016282D 1   1.00000     0.00000     0

 35 38  0     1  0            999 V2000
   16.6173  -20.9004    0.0000 O   0  0  0  0  0  0  0  0  0  0  0  0
   17.4574  -20.4161    0.0000 C   0  0  0  0  0  0  0  0  0  0  0  0
   18.2970  -20.9017    0.0000 C   0  0  0  0  0  0  0  0  0  0  0  0
   17.4581  -19.4464    0.0000 O   0  0  0  0  0  0  0  0  0  0  0  0
   14.7877  -19.9063    0.0000 C   0  0  0  0  0  0  0  0  0  0  0  0
   13.9540  -20.3813    0.0000 C   0  0  0  0  0  0  0  0  0  0  0  0
   14.7918  -18.9522    0.0000 C   0  0  0  0  0  0  0  0  0  0  0  0
   13.1289  -19.9020    0.0000 C   0  0  0  0  0  0  0  0  0  0  0  0
   15.7819  -20.4174    0.0000 C   0  0  0  0  0  0  0  0  0  0  0  0
   13.9457  -21.3362    0.0000 C   0  0  0  0  0  0  0  0  0  0  0  0
   15.7460  -18.9481    0.0000 C   0  0  0  0  0  0  0  0  0  0  0  0
   13.9625  -18.4688    0.0000 O   0  0  0  0  0  0  0  0  0  0  0  0
   13.1330  -18.9438    0.0000 C   0  0  0  0  0  0  0  0  0  0  0  0
   12.3038  -20.3772    0.0000 C   0  0  0  0  0  0  0  0  0  0  0  0
   13.1205  -20.8571    0.0000 C   0  0  0  0  0  0  0  0  0  0  0  0
   16.4253  -18.2779    0.0000 O   0  0  0  0  0  0  0  0  0  0  0  0
   12.3038  -18.4645    0.0000 C   0  0  0  0  0  0  0  0  0  0  0  0
   11.4745  -19.9020    0.0000 C   0  0  0  0  0  0  0  0  0  0  0  0
   11.4745  -18.9438    0.0000 C   0  0  0  0  0  0  0  0  0  0  0  0
   10.6359  -20.3772    0.0000 O   0  0  0  0  0  0  0  0  0  0  0  0
   10.6359  -18.4645    0.0000 C   0  0  0  0  0  0  0  0  0  0  0  0
    9.8100  -19.8914    0.0000 C   0  0  0  0  0  0  0  0  0  0  0  0
    8.9763  -20.3638    0.0000 C   0  0  0  0  0  0  0  0  0  0  0  0
    9.8177  -18.9332    0.0000 O   0  0  0  0  0  0  0  0  0  0  0  0
    8.1504  -19.8780    0.0000 C   0  0  0  0  0  0  0  0  0  0  0  0
    7.3167  -20.3504    0.0000 C   0  0  0  0  0  0  0  0  0  0  0  0
    8.1581  -18.9199    0.0000 C   0  0  0  0  0  0  0  0  0  0  0  0
   14.7834  -17.9939    0.0000 H   0  0  0  0  0  0  0  0  0  0  0  0
   13.1247  -17.9854    0.0000 H   0  0  0  0  0  0  0  0  0  0  0  0
   12.2866  -21.3289    0.0000 O   0  0  0  0  0  0  0  0  0  0  0  0
   12.2782  -22.2870    0.0000 C   0  0  0  0  0  0  0  0  0  0  0  0
   11.4442  -22.7588    0.0000 C   0  0  0  0  0  0  0  0  0  0  0  0
   13.1038  -22.7734    0.0000 O   0  0  0  0  0  0  0  0  0  0  0  0
   13.6442  -19.9208    0.0000 C   0  0  0  0  0  0  0  0  0  0  0  0
   14.0560  -19.1578    0.0000 O   0  0  0  0  0  0  0  0  0  0  0  0
  2  4  2  0     0  0
  1  2  1  0     0  0
  2  3  1  0     0  0
  5  6  1  0     0  0
  5  7  1  0     0  0
  6  8  1  0     0  0
  6  9  1  0     0  0
  6 10  1  1     0  0
  7 11  1  0     0  0
  7 12  1  0     0  0
  8 13  1  0     0  0
  8 14  1  0     0  0
  8 15  1  6     0  0
 11 16  1  6     0  0
 13 17  1  0     0  0
 14 18  1  0     0  0
 17 19  2  0     0  0
 18 20  1  6     0  0
 19 21  1  0     0  0
 20 22  1  0     0  0
 22 23  1  0     0  0
 22 24  2  0     0  0
 23 25  1  0     0  0
 25 26  1  0     0  0
 25 27  1  0     0  0
  9 11  1  0     0  0
 12 13  1  0     0  0
 18 19  1  0     0  0
  7 28  1  1     0  0
 13 29  1  6     0  0
  9  1  1  1     0  0
 15 30  1  0     0  0
 30 31  1  0     0  0
 31 32  1  0     0  0
 31 33  2  0     0  0
 34 35  1  0     0  0
  5 35  1  1     0  0
  5 34  1  0     0  0
M  END
> <ID>
CHEBI:9381

> <NAME>
T-2 toxin

$$$$

Ketcher 04201715312D 1   1.00000     0.00000     0

 19 21  0     1  0            999 V2000
   13.9182   -8.5112    0.0000 N   0  0  0  0  0  0  0  0  0  0  0  0
   13.9182   -9.4926    0.0000 C   0  0  0  0  0  0  0  0  0  0  0  0
   13.0683   -9.9834    0.0000 N   0  0  0  0  0  0  0  0  0  0  0  0
   12.2184   -9.4926    0.0000 C   0  0  0  0  0  0  0  0  0  0  0  0
   12.2184   -8.5112    0.0000 C   0  0  0  0  0  0  0  0  0  0  0  0
   13.0683   -8.0204    0.0000 C   0  0  0  0  0  0  0  0  0  0  0  0
   11.2849   -9.7466    0.0000 N   0  0  0  0  0  0  0  0  0  0  0  0
   10.7079   -9.0019    0.0000 C   0  0  0  0  0  0  0  0  0  0  0  0
   11.2849   -8.2078    0.0000 N   0  0  0  0  0  0  0  0  0  0  0  0
   13.0683   -7.0389    0.0000 C   0  0  0  0  0  0  0  0  0  0  0  0
   12.2171   -7.5297    0.0000 H   0  0  0  0  0  0  0  0  0  0  0  0
    9.7305   -9.0019    0.0000 N   0  0  0  0  0  0  0  0  0  0  0  0
   14.7682   -9.9834    0.0000 N   0  0  0  0  0  0  0  0  0  0  0  0
   13.9177   -6.5484    0.0000 O   0  0  0  0  0  0  0  0  0  0  0  0
   11.9523  -10.4783    0.0000 C   0  0  0  0  0  0  0  0  0  0  0  0
   12.5081  -11.1287    0.0000 C   0  0  0  0  0  0  0  0  0  0  0  0
   13.5133  -11.1168    0.0000 C   0  0  0  0  0  0  0  0  0  0  0  0
   10.9353  -10.9157    0.0000 O   0  0  0  0  0  0  0  0  0  0  0  0
   11.8340  -11.6017    0.0000 O   0  0  0  0  0  0  0  0  0  0  0  0
  1  2  1  0     0  0
  2  3  1  0     0  0
  3  4  1  0     0  0
  4  5  1  0     0  0
  5  6  1  0     0  0
  1  6  1  0     0  0
  4  7  1  0     0  0
  7  8  1  0     0  0
  8  9  1  0     0  0
  5  9  1  0     0  0
  6 10  1  6     0  0
  5 11  1  6     0  0
  8 12  2  0     0  0
  2 13  2  0     0  0
 10 14  1  0     0  0
  4 15  1  6     0  0
 15 16  1  0     0  0
 16 17  1  0     0  0
  3 17  1  0     0  0
 15 18  1  0     0  0
 15 19  1  0     0  0
M  END
> <ID>
CHEBI:133919

> <NAME>
decarbamoylsaxitoxin

$$$$

Marvin  11130811002D          

 22 25  0  0  1  0            999 V2000
    0.0000   -1.6500    0.0000 C   0  0  2  0  0  0  0  0  0  0  0  0
    0.7145   -1.2375    0.0000 C   0  0  2  0  0  0  0  0  0  0  0  0
   -0.7145   -1.2375    0.0000 C   0  0  0  0  0  0  0  0  0  0  0  0
    0.1715   -2.4570    0.0000 O   0  0  0  0  0  0  0  0  0  0  0  0
    1.3276   -1.7896    0.0000 C   0  0  0  0  0  0  0  0  0  0  0  0
    0.7145   -0.4125    0.0000 C   0  0  0  0  0  0  0  0  0  0  0  0
   -0.7145   -0.4125    0.0000 C   0  0  0  0  0  0  0  0  0  0  0  0
   -1.4289   -1.6500    0.0000 C   0  0  0  0  0  0  0  0  0  0  0  0
    0.9920   -2.5433    0.0000 C   0  0  0  0  0  0  0  0  0  0  0  0
    2.1481   -1.7033    0.0000 C   0  0  0  0  0  0  0  0  0  0  0  0
    0.0000    0.0000    0.0000 O   0  0  0  0  0  0  0  0  0  0  0  0
   -1.4289    0.0000    0.0000 C   0  0  0  0  0  0  0  0  0  0  0  0
   -2.1434   -1.2375    0.0000 C   0  0  0  0  0  0  0  0  0  0  0  0
    1.4769   -3.2107    0.0000 C   0  0  0  0  0  0  0  0  0  0  0  0
    2.6330   -2.3708    0.0000 C   0  0  0  0  0  0  0  0  0  0  0  0
   -2.1434   -0.4125    0.0000 C   0  0  0  0  0  0  0  0  0  0  0  0
    2.2974   -3.1245    0.0000 C   0  0  0  0  0  0  0  0  0  0  0  0
   -2.8579    0.0000    0.0000 O   0  0  0  0  0  0  0  0  0  0  0  0
    2.7823   -3.7919    0.0000 O   0  0  0  0  0  0  0  0  0  0  0  0
    3.6028   -3.7057    0.0000 C   0  0  0  0  0  0  0  0  0  0  0  0
    1.4290   -0.8250    0.0000 H   0  0  0  0  0  0  0  0  0  0  0  0
   -0.7145   -2.0625    0.0000 H   0  0  0  0  0  0  0  0  0  0  0  0
  1  2  1  0  0  0  0
  1  3  1  0  0  0  0
  1  4  1  0  0  0  0
  2  5  1  0  0  0  0
  2  6  1  0  0  0  0
  3  7  2  0  0  0  0
  3  8  1  0  0  0  0
  4  9  1  0  0  0  0
  5 10  2  0  0  0  0
  6 11  1  0  0  0  0
  7 12  1  0  0  0  0
  8 13  2  0  0  0  0
  9 14  2  0  0  0  0
 10 15  1  0  0  0  0
 12 16  2  0  0  0  0
 14 17  1  0  0  0  0
 16 18  1  0  0  0  0
 17 19  1  0  0  0  0
 19 20  1  0  0  0  0
  5  9  1  0  0  0  0
  7 11  1  0  0  0  0
 13 16  1  0  0  0  0
 15 17  2  0  0  0  0
  2 21  1  6  0  0  0
  1 22  1  6  0  0  0
M  END
> <ID>
CHEBI:100

> <NAME>
(-)-medicarpin

$$$$

Marvin  04150815012D          

  7  6  0  0  0  0            999 V2000
    1.0270    2.0375    0.0000 O   0  0  0  0  0  0  0  0  0  0  0  0
    0.3125    0.8000    0.0000 O   0  0  0  0  0  0  0  0  0  0  0  0
    0.3125    1.6250    0.0000 C   0  0  0  0  0  0  0  0  0  0  0  0
   -0.4020    2.0375    0.0000 C   0  0  0  0  0  0  0  0  0  0  0  0
   -1.1164    1.6250    0.0000 C   0  0  0  0  0  0  0  0  0  0  0  0
   -1.8309    2.0375    0.0000 S   0  0  0  0  0  0  0  0  0  0  0  0
   -2.5454    1.6250    0.0000 C   0  0  0  0  0  0  0  0  0  0  0  0
  3  1  1  0  0  0  0
  3  2  2  0  0  0  0
  3  4  1  0  0  0  0
  4  5  1  0  0  0  0
  5  6  1  0  0  0  0
  6  7  1  0  0  0  0
M  END
> <ID>
CHEBI:1438

> <NAME>
3-(methylthio)propionic acid

$$$$

Marvin  02130614312D          

 46 50  0  0  1  0            999 V2000
    0.7812   -1.5628    0.0000 C   0  0  0  0  0  0  0  0  0  0  0  0
    1.4957   -1.1503    0.0000 C   0  0  0  0  0  0  0  0  0  0  0  0
    0.7812   -2.3878    0.0000 C   0  0  0  0  0  0  0  0  0  0  0  0
    2.2102   -1.5628    0.0000 C   0  0  0  0  0  0  0  0  0  0  0  0
    1.4957   -0.3253    0.0000 O   0  0  0  0  0  0  0  0  0  0  0  0
   -0.4883   -0.6405    0.0000 C   0  0  2  0  0  0  0  0  0  0  0  0
    1.4957   -2.8003    0.0000 C   0  0  0  0  0  0  0  0  0  0  0  0
   -0.0034   -2.6428    0.0000 O   0  0  0  0  0  0  0  0  0  0  0  0
    2.9246   -1.1503    0.0000 C   0  0  0  0  0  0  0  0  0  0  0  0
    2.2102   -2.3878    0.0000 C   0  0  0  0  0  0  0  0  0  0  0  0
    2.2102    0.0872    0.0000 C   0  0  0  0  0  0  0  0  0  0  0  0
   -1.2730   -1.7204    0.0000 O   0  0  0  0  0  0  0  0  0  0  0  0
   -1.2730   -0.8954    0.0000 C   0  0  1  0  0  0  0  0  0  0  0  0
    2.9246   -0.3253    0.0000 C   0  0  0  0  0  0  0  0  0  0  0  0
    3.7093   -1.4053    0.0000 C   0  0  0  0  0  0  0  0  0  0  0  0
    2.9246   -2.8003    0.0000 O   0  0  0  0  0  0  0  0  0  0  0  0
    2.2102    0.9122    0.0000 O   0  0  0  0  0  0  0  0  0  0  0  0
    3.7093   -0.0704    0.0000 C   0  0  0  0  0  0  0  0  0  0  0  0
    4.1942   -0.7378    0.0000 C   0  0  0  0  0  0  0  0  0  0  0  0
    3.6391   -2.3878    0.0000 C   0  0  0  0  0  0  0  0  0  0  0  0
    3.9642    0.7142    0.0000 O   0  0  0  0  0  0  0  0  0  0  0  0
   -0.2334    0.1442    0.0000 O   0  0  0  0  0  0  0  0  0  0  0  0
   -1.4230    4.5124    0.0000 N   0  0  0  0  0  0  0  0  0  0  0  0
   -0.7555    4.0275    0.0000 C   0  0  1  0  0  0  0  0  0  0  0  0
   -0.8418    3.2070    0.0000 C   0  0  0  0  0  0  0  0  0  0  0  0
   -1.5954    2.8714    0.0000 C   0  0  0  0  0  0  0  0  0  0  0  0
   -1.6817    2.0510    0.0000 C   0  0  0  0  0  0  0  0  0  0  0  0
   -1.0142    1.5660    0.0000 O   0  0  0  0  0  0  0  0  0  0  0  0
   -2.4354    1.7154    0.0000 N   0  0  0  0  0  0  0  0  0  0  0  0
   -2.5216    0.8949    0.0000 C   0  0  1  0  0  0  0  0  0  0  0  0
   -1.8542    0.4100    0.0000 C   0  0  0  0  0  0  0  0  0  0  0  0
   -1.9404   -0.4105    0.0000 S   0  0  0  0  0  0  0  0  0  0  0  0
   -3.2753    0.5594    0.0000 C   0  0  0  0  0  0  0  0  0  0  0  0
   -3.9427    1.0443    0.0000 O   0  0  0  0  0  0  0  0  0  0  0  0
   -3.3615   -0.2611    0.0000 N   0  0  0  0  0  0  0  0  0  0  0  0
   -4.1152   -0.5967    0.0000 C   0  0  0  0  0  0  0  0  0  0  0  0
   -4.2014   -1.4172    0.0000 C   0  0  0  0  0  0  0  0  0  0  0  0
   -3.5340   -1.9021    0.0000 O   0  0  0  0  0  0  0  0  0  0  0  0
   -4.9551   -1.7527    0.0000 O   0  0  0  0  0  0  0  0  0  0  0  0
   -0.0019    4.3630    0.0000 C   0  0  0  0  0  0  0  0  0  0  0  0
    0.6656    3.8781    0.0000 O   0  0  0  0  0  0  0  0  0  0  0  0
    0.0844    5.1835    0.0000 O   0  0  0  0  0  0  0  0  0  0  0  0
   -0.0034   -1.3079    0.0000 C   0  0  2  0  0  0  0  0  0  0  0  0
   -0.4883   -1.9753    0.0000 C   0  0  1  0  0  0  0  0  0  0  0  0
    0.4815   -0.6405    0.0000 H   0  0  0  0  0  0  0  0  0  0  0  0
   -0.9733   -2.6428    0.0000 H   0  0  0  0  0  0  0  0  0  0  0  0
  1  2  2  0  0  0  0
  1 43  1  0  0  0  0
  1  3  1  0  0  0  0
  2  4  1  0  0  0  0
  2  5  1  0  0  0  0
 43 44  1  0  0  0  0
 43  6  1  0  0  0  0
  3  7  2  0  0  0  0
  3  8  1  0  0  0  0
  4  9  1  0  0  0  0
  4 10  2  0  0  0  0
  5 11  1  0  0  0  0
 44 12  1  0  0  0  0
  6 13  1  0  0  0  0
  9 14  2  0  0  0  0
  9 15  1  0  0  0  0
 10 16  1  0  0  0  0
 11 17  2  0  0  0  0
 14 18  1  0  0  0  0
 15 19  1  0  0  0  0
 16 20  1  0  0  0  0
 18 21  2  0  0  0  0
 44  8  1  0  0  0  0
  7 10  1  0  0  0  0
 11 14  1  0  0  0  0
 12 13  1  0  0  0  0
 18 19  1  0  0  0  0
  6 22  1  6  0  0  0
 13 32  1  1  0  0  0
 24 23  1  6  0  0  0
 24 25  1  0  0  0  0
 24 40  1  0  0  0  0
 25 26  1  0  0  0  0
 26 27  1  0  0  0  0
 27 28  2  0  0  0  0
 27 29  1  0  0  0  0
 29 30  1  0  0  0  0
 30 31  1  1  0  0  0
 30 33  1  0  0  0  0
 31 32  1  0  0  0  0
 33 34  2  0  0  0  0
 33 35  1  0  0  0  0
 35 36  1  0  0  0  0
 36 37  1  0  0  0  0
 37 38  2  0  0  0  0
 37 39  1  0  0  0  0
 40 41  2  0  0  0  0
 40 42  1  0  0  0  0
 43 45  1  6  0  0  0
 44 46  1  6  0  0  0
M  END
> <ID>
CHEBI:2505

> <NAME>
8,9-dihydro-8-(S-glutathionyl)-9-hydroxyaflatoxin B1

$$$$

Ketcher 07172015442D 1   1.00000     0.00000     0

 39 44  0     1  0            999 V2000
   11.0180   -6.3507    0.0000 C   0  0  0  0  0  0  0  0  0  0  0  0
   11.8807   -6.8467    0.0000 C   0  0  0  0  0  0  0  0  0  0  0  0
   10.1512   -6.8425    0.0000 C   0  0  0  0  0  0  0  0  0  0  0  0
   11.0223   -5.3464    0.0000 C   0  0  0  0  0  0  0  0  0  0  0  0
   11.8766   -7.8427    0.0000 C   0  0  0  0  0  0  0  0  0  0  0  0
   12.7557   -6.3591    0.0000 C   0  0  0  0  0  0  0  0  0  0  0  0
   10.1554   -7.8427    0.0000 C   0  0  0  0  0  0  0  0  0  0  0  0
    9.2886   -6.3507    0.0000 C   0  0  0  0  0  0  0  0  0  0  0  0
   11.8932   -4.8463    0.0000 C   0  0  0  0  0  0  0  0  0  0  0  0
   10.1554   -4.8463    0.0000 C   0  0  0  0  0  0  0  0  0  0  0  0
   11.0139   -8.3386    0.0000 C   0  0  0  0  0  0  0  0  0  0  0  0
   12.7350   -8.3428    0.0000 C   0  0  0  0  0  0  0  0  0  0  0  0
   12.7601   -5.3547    0.0000 C   0  0  0  0  0  0  0  0  0  0  0  0
   13.6144   -6.8508    0.0000 C   0  0  0  0  0  0  0  0  0  0  0  0
    9.3010   -8.3386    0.0000 C   0  0  0  0  0  0  0  0  0  0  0  0
    9.2886   -5.3464    0.0000 C   0  0  0  0  0  0  0  0  0  0  0  0
    8.3175   -6.6091    0.0000 O   0  0  0  0  0  0  0  0  0  0  0  0
   11.8974   -3.8461    0.0000 O   0  0  0  0  0  0  0  0  0  0  0  0
   10.1554   -3.8418    0.0000 O   0  0  0  0  0  0  0  0  0  0  0  0
   11.0139   -9.3305    0.0000 C   0  0  0  0  0  0  0  0  0  0  0  0
   12.7350   -9.3388    0.0000 C   0  0  0  0  0  0  0  0  0  0  0  0
   13.6060   -7.8427    0.0000 C   0  0  0  0  0  0  0  0  0  0  0  0
   13.6269   -4.8546    0.0000 O   0  0  0  0  0  0  0  0  0  0  0  0
   14.4812   -6.3507    0.0000 C   0  0  0  0  0  0  0  0  0  0  0  0
    9.3010   -9.3305    0.0000 C   0  0  0  0  0  0  0  0  0  0  0  0
    8.3300   -8.0719    0.0000 O   0  0  0  0  0  0  0  0  0  0  0  0
    7.6049   -7.3176    0.0000 C   0  0  0  0  0  0  0  0  0  0  0  0
   11.8724   -9.8306    0.0000 C   0  0  0  0  0  0  0  0  0  0  0  0
   10.1512   -9.8222    0.0000 C   0  0  0  0  0  0  0  0  0  0  0  0
   13.6019   -9.8389    0.0000 O   0  0  0  0  0  0  0  0  0  0  0  0
   14.4728   -8.3512    0.0000 C   0  0  0  0  0  0  0  0  0  0  0  0
   13.6227   -3.8544    0.0000 C   0  0  0  0  0  0  0  0  0  0  0  0
   15.3480   -6.8425    0.0000 C   0  0  0  0  0  0  0  0  0  0  0  0
   14.4812   -5.3464    0.0000 O   0  0  0  0  0  0  0  0  0  0  0  0
   11.8683  -10.8307    0.0000 O   0  0  0  0  0  0  0  0  0  0  0  0
   10.1512  -10.8267    0.0000 O   0  0  0  0  0  0  0  0  0  0  0  0
   13.5977  -10.8434    0.0000 C   0  0  0  0  0  0  0  0  0  0  0  0
   15.3398   -7.8427    0.0000 C   0  0  0  0  0  0  0  0  0  0  0  0
   14.4770   -9.3514    0.0000 O   0  0  0  0  0  0  0  0  0  0  0  0
  1  2  1  0     0  0
  1  3  1  0     0  0
  1  4  2  0     0  0
  2  5  2  0     0  0
  2  6  1  0     0  0
  3  7  1  0     0  0
  3  8  2  0     0  0
  4  9  1  0     0  0
  4 10  1  0     0  0
  5 11  1  0     0  0
  5 12  1  0     0  0
  6 13  2  0     0  0
  6 14  1  0     0  0
  7 15  2  0     0  0
  8 16  1  0     0  0
  8 17  1  0     0  0
  9 18  2  0     0  0
 10 19  1  0     0  0
 11 20  2  0     0  0
 12 21  2  0     0  0
 12 22  1  0     0  0
 13 23  1  0     0  0
 14 24  1  0     0  0
 15 25  1  0     0  0
 15 26  1  0     0  0
 17 27  1  0     0  0
 20 28  1  0     0  0
 20 29  1  0     0  0
 21 30  1  0     0  0
 22 31  1  0     0  0
 23 32  1  0     0  0
 24 33  1  0     0  0
 24 34  1  6     0  0
 28 35  2  0     0  0
 29 36  1  0     0  0
 30 37  1  0     0  0
 31 38  1  0     0  0
 31 39  1  1     0  0
  7 11  1  0     0  0
  9 13  1  0     0  0
 10 16  2  0     0  0
 21 28  1  0     0  0
 25 29  2  0     0  0
 26 27  1  0     0  0
M  END
> <ID>
CHEBI:3556

> <NAME>
cercosporin

$$$$

Mrv0541 05071411292D          

 15 15  0  0  0  0            999 V2000
   10.1127   -3.9761    0.0000 C   0  0  0  0  0  0  0  0  0  0  0  0
    9.3983   -4.3886    0.0000 C   0  0  0  0  0  0  0  0  0  0  0  0
    8.6838   -3.9761    0.0000 C   0  0  0  0  0  0  0  0  0  0  0  0
    8.6838   -3.1511    0.0000 C   0  0  0  0  0  0  0  0  0  0  0  0
    9.3983   -2.7386    0.0000 C   0  0  0  0  0  0  0  0  0  0  0  0
   10.1127   -3.1511    0.0000 C   0  0  0  0  0  0  0  0  0  0  0  0
   10.8272   -2.7386    0.0000 C   0  0  0  0  0  0  0  0  0  0  0  0
   11.5417   -3.1511    0.0000 C   0  0  0  0  0  0  0  0  0  0  0  0
   10.8272   -1.9136    0.0000 O   0  0  0  0  0  0  0  0  0  0  0  0
   11.5417   -3.9761    0.0000 O   0  0  0  0  0  0  0  0  0  0  0  0
    7.9693   -2.7386    0.0000 O   0  0  0  0  0  0  0  0  0  0  0  0
    7.2549   -3.1511    0.0000 C   0  0  0  0  0  0  0  0  0  0  0  0
    7.9693   -4.3886    0.0000 O   0  0  0  0  0  0  0  0  0  0  0  0
    9.3983   -5.2136    0.0000 O   0  0  0  0  0  0  0  0  0  0  0  0
    8.6838   -5.6261    0.0000 C   0  0  0  0  0  0  0  0  0  0  0  0
  1  2  1  0  0  0  0
  7  8  1  0  0  0  0
  2  3  2  0  0  0  0
  7  9  2  0  0  0  0
  3  4  1  0  0  0  0
  8 10  1  0  0  0  0
  4  5  2  0  0  0  0
  4 11  1  0  0  0  0
  5  6  1  0  0  0  0
 11 12  1  0  0  0  0
  6  1  2  0  0  0  0
  3 13  1  0  0  0  0
  2 14  1  0  0  0  0
  6  7  1  0  0  0  0
 14 15  1  0  0  0  0
M  END
> <ID>
CHEBI:4316

> <NAME>
danielone

$$$$

Marvin  09250617012D          

 31 34  0  0  0  0            999 V2000
   -1.5419    2.9353    0.0000 C   0  0  0  0  0  0  0  0  0  0  0  0
    0.6919    1.5243    0.0000 C   0  0  0  0  0  0  0  0  0  0  0  0
   -2.0269    2.2679    0.0000 C   0  0  2  0  0  0  0  0  0  0  0  0
   -2.8519    2.2679    0.0000 O   0  0  0  0  0  0  0  0  0  0  0  0
   -0.1125    1.3408    0.0000 C   0  0  1  0  0  0  0  0  0  0  0  0
   -0.1435    0.5164    0.0000 O   0  0  0  0  0  0  0  0  0  0  0  0
   -0.7574    1.8553    0.0000 C   0  0  1  0  0  0  0  0  0  0  0  0
   -0.7574    1.0303    0.0000 O   0  0  0  0  0  0  0  0  0  0  0  0
   -0.4978    3.9241    0.0000 O   0  0  0  0  0  0  0  0  0  0  0  0
   -0.7574    2.6802    0.0000 C   0  0  2  0  0  0  0  0  0  0  0  0
   -0.7574    3.5052    0.0000 H   0  0  0  0  0  0  0  0  0  0  0  0
   -0.1123    3.1946    0.0000 C   0  0  2  0  0  0  0  0  0  0  0  0
    0.1012    3.9915    0.0000 C   0  0  0  0  0  0  0  0  0  0  0  0
    0.6920    3.0109    0.0000 C   0  0  2  0  0  0  0  0  0  0  0  0
    1.1568    3.6925    0.0000 C   0  0  0  0  0  0  0  0  0  0  0  0
    1.9795    3.6308    0.0000 C   0  0  0  0  0  0  0  0  0  0  0  0
    1.0499    2.2676    0.0000 C   0  0  1  0  0  0  0  0  0  0  0  0
    1.3225    3.0463    0.0000 C   0  0  0  0  0  0  0  0  0  0  0  0
    3.2915    3.2014    0.0000 C   0  0  0  0  0  0  0  0  0  0  0  0
    2.6099    3.6662    0.0000 C   0  0  1  0  0  0  0  0  0  0  0  0
    2.6716    4.4889    0.0000 O   0  0  0  0  0  0  0  0  0  0  0  0
    1.8726    2.2058    0.0000 C   0  0  2  0  0  0  0  0  0  0  0  0
    3.5180    2.0824    0.0000 C   0  0  0  0  0  0  0  0  0  0  0  0
    3.0532    1.4008    0.0000 C   0  0  0  0  0  0  0  0  0  0  0  0
    3.4111    0.6575    0.0000 O   0  0  0  0  0  0  0  0  0  0  0  0
    2.2305    1.4625    0.0000 O   0  0  0  0  0  0  0  0  0  0  0  0
    2.3374    2.8875    0.0000 C   0  0  1  0  0  0  0  0  0  0  0  0
    2.6953    2.1442    0.0000 H   0  0  0  0  0  0  0  0  0  0  0  0
   -1.5420    0.7754    0.0000 C   0  0  0  0  0  0  0  0  0  0  0  0
   -1.5420    1.6004    0.0000 C   0  0  3  0  0  0  0  0  0  0  0  0
   -2.1253    1.0170    0.0000 C   0  0  0  0  0  0  0  0  0  0  0  0
 14 12  1  0  0  0  0
 12 10  1  0  0  0  0
  7 30  1  0  0  0  0
 10  7  1  0  0  0  0
 10  1  1  0  0  0  0
 30  3  1  0  0  0  0
  3  1  1  0  0  0  0
  7  5  1  0  0  0  0
  5  2  1  0  0  0  0
 17  2  1  0  0  0  0
  3  4  1  1  0  0  0
  5  6  1  1  0  0  0
  7  8  1  1  0  0  0
 12  9  1  6  0  0  0
 10 11  1  6  0  0  0
 12 13  1  1  0  0  0
 14 15  1  6  0  0  0
 14 17  1  0  0  0  0
 17 22  1  0  0  0  0
 15 16  1  0  0  0  0
 22 27  1  0  0  0  0
 27 16  1  0  0  0  0
 17 18  1  1  0  0  0
 27 20  1  0  0  0  0
 18 20  1  0  0  0  0
 20 19  1  6  0  0  0
 20 21  1  1  0  0  0
 22 26  1  1  0  0  0
 26 24  1  0  0  0  0
 24 23  1  0  0  0  0
 24 25  2  0  0  0  0
 27 28  1  6  0  0  0
 30 29  1  0  0  0  0
 30 31  1  0  0  0  0
M  END
> <ID>
CHEBI:5542

> <NAME>
grayanotoxin I

$$$$

Mrv0541 08141416152D          

 15 14  0  0  0  0            999 V2000
   -2.1450   -0.1963    0.0000 C   0  0  1  0  0  0  0  0  0  0  0  0
   -1.4288    0.2135    0.0000 C   0  0  0  0  0  0  0  0  0  0  0  0
   -2.8577    0.2100    0.0000 C   0  0  0  0  0  0  0  0  0  0  0  0
   -2.1484   -1.0260    0.0000 N   0  0  0  0  0  0  0  0  0  0  0  0
   -0.7161   -0.1928    0.0000 S   0  0  0  0  0  0  0  0  0  0  0  0
   -3.5738   -0.2031    0.0000 O   0  0  0  0  0  0  0  0  0  0  0  0
   -2.8611    1.0398    0.0000 O   0  0  0  0  0  0  0  0  0  0  0  0
    0.0000    0.2169    0.0000 C   0  0  0  0  0  0  0  0  0  0  0  0
    0.7161   -0.1894    0.0000 S   0  0  0  0  0  0  0  0  0  0  0  0
    1.4323    0.2238    0.0000 C   0  0  0  0  0  0  0  0  0  0  0  0
    2.1484   -0.1859    0.0000 C   0  0  1  0  0  0  0  0  0  0  0  0
    2.8577    0.2273    0.0000 C   0  0  0  0  0  0  0  0  0  0  0  0
    2.1450   -1.0122    0.0000 N   0  0  0  0  0  0  0  0  0  0  0  0
    3.5738   -0.1825    0.0000 O   0  0  0  0  0  0  0  0  0  0  0  0
    2.8542    1.0536    0.0000 O   0  0  0  0  0  0  0  0  0  0  0  0
  1  2  1  0  0  0  0
  1  3  1  0  0  0  0
  1  4  1  6  0  0  0
  2  5  1  0  0  0  0
  3  6  1  0  0  0  0
  3  7  2  0  0  0  0
  5  8  1  0  0  0  0
  8  9  1  0  0  0  0
  9 10  1  0  0  0  0
 10 11  1  0  0  0  0
 11 12  1  0  0  0  0
 11 13  1  1  0  0  0
 12 14  1  0  0  0  0
 12 15  2  0  0  0  0
M  END
> <ID>
CHEBI:6211

> <NAME>
L-djenkolic acid

$$$$

Ketcher 02281712142D 1   1.00000     0.00000     0

 20 20  0     1  0            999 V2000
   21.2555  -27.4964    0.0000 C   0  0  0  0  0  0  0  0  0  0  0  0
   21.2555  -28.4948    0.0000 O   0  0  0  0  0  0  0  0  0  0  0  0
   22.1201  -26.9971    0.0000 C   0  0  0  0  0  0  0  0  0  0  0  0
   20.3908  -26.9971    0.0000 O   0  0  0  0  0  0  0  0  0  0  0  0
   22.9847  -27.4964    0.0000 N   0  0  0  0  0  0  0  0  0  0  0  0
   22.1201  -25.9986    0.0000 C   0  0  0  0  0  0  0  0  0  0  0  0
   22.9847  -25.4994    0.0000 C   0  0  0  0  0  0  0  0  0  0  0  0
   22.9847  -24.5010    0.0000 C   0  0  0  0  0  0  0  0  0  0  0  0
   23.8495  -24.0017    0.0000 O   0  0  0  0  0  0  0  0  0  0  0  0
   22.1201  -24.0017    0.0000 N   0  0  0  0  0  0  0  0  0  0  0  0
   20.3790  -22.9914    0.0000 C   0  0  0  0  0  0  0  0  0  0  0  0
   19.3812  -22.9914    0.0000 C   0  0  0  0  0  0  0  0  0  0  0  0
   21.2474  -22.4987    0.0000 C   0  0  0  0  0  0  0  0  0  0  0  0
   19.8862  -23.8599    0.0000 C   0  0  0  0  0  0  0  0  0  0  0  0
   18.5169  -22.4820    0.0000 C   0  0  0  0  0  0  0  0  0  0  0  0
   22.1159  -22.9955    0.0000 C   0  0  0  0  0  0  0  0  0  0  0  0
   22.9844  -22.5029    0.0000 C   0  0  0  0  0  0  0  0  0  0  0  0
   23.8529  -23.0039    0.0000 O   0  0  0  0  0  0  0  0  0  0  0  0
   22.9886  -21.5007    0.0000 O   0  0  0  0  0  0  0  0  0  0  0  0
   20.3790  -21.9902    0.0000 H   0  0  0  0  0  0  0  0  0  0  0  0
  2  1  2  0     0  0
  3  1  1  0     0  0
  4  1  1  0     0  0
  3  5  1  6     0  0
  6  3  1  0     0  0
  7  6  1  0     0  0
  8  7  1  0     0  0
  8  9  2  0     0  0
  8 10  1  0     0  0
 11 12  1  0     0  0
 11 13  1  0     0  0
 11 14  1  0     0  0
 12 15  2  0     0  0
 13 16  1  0     0  0
 16 17  1  0     0  0
 16 10  1  1     0  0
 17 18  1  0     0  0
 17 19  2  0     0  0
 12 14  1  0     0  0
 11 20  1  1     0  0
M  END
> <ID>
CHEBI:6332

> <NAME>
(2S,4S)-hypoglycin B

$$$$

Ketcher 06082114362D 1   1.00000     0.00000     0

 16 18  0     0  0            999 V2000
    1.7353    3.1033    0.0000 O   0  0  0  0  0  0  0  0  0  0  0  0
    1.7353    0.1033    0.0000 C   0  0  0  0  0  0  0  0  0  0  0  0
   -1.7287    0.1033    0.0000 C   0  0  0  0  0  0  0  0  0  0  0  0
    0.0033    2.1033    0.0000 N   0  0  0  0  0  0  0  0  0  0  0  0
   -0.8628    0.6033    0.0000 C   0  0  0  0  0  0  0  0  0  0  0  0
    0.8693    0.6033    0.0000 C   0  0  0  0  0  0  0  0  0  0  0  0
    0.8693    1.6033    0.0000 C   0  0  0  0  0  0  0  0  0  0  0  0
    2.6013    0.6033    0.0000 C   0  0  0  0  0  0  0  0  0  0  0  0
   -2.5948    1.6033    0.0000 C   0  0  0  0  0  0  0  0  0  0  0  0
    1.7353    2.1033    0.0000 C   0  0  0  0  0  0  0  0  0  0  0  0
    0.0033    0.1033    0.0000 N   0  0  0  0  0  0  0  0  0  0  0  0
   -1.7287    2.1033    0.0000 C   0  0  0  0  0  0  0  0  0  0  0  0
    2.6013    1.6033    0.0000 C   0  0  0  0  0  0  0  0  0  0  0  0
   -0.8628    1.6033    0.0000 C   0  0  0  0  0  0  0  0  0  0  0  0
   -2.5948    0.6033    0.0000 C   0  0  0  0  0  0  0  0  0  0  0  0
    0.0033   -0.8967    0.0000 C   0  0  0  0  0  0  0  0  0  0  0  0
  9 15  1  0     0  0
 14  4  2  0     0  0
 13 10  2  0     0  0
 14 12  1  0     0  0
 11  5  2  0     0  0
 10  7  1  0     0  0
 12  9  2  0     0  0
  8  2  2  0     0  0
  8 13  1  0     0  0
  4  7  1  0     0  0
  6 11  1  0     0  0
  7  6  2  0     0  0
  5 14  1  0     0  0
 15  3  2  0     0  0
  3  5  1  0     0  0
  2  6  1  0     0  0
  1 10  1  0     0  0
 11 16  1  0     0  0
M  CHG  2   1  -1  11   1
M  END
> <ID>
CHEBI:8653

> <NAME>
pyocyanine

$$$$

Marvin  07041309552D          

 14 15  0  0  1  0            999 V2000
    7.1778   -6.8680    0.0000 N   0  0  0  0  0  0  0  0  0  0  0  0
    7.1854   -6.0429    0.0000 C   0  0  0  0  0  0  0  0  0  0  0  0
    6.4668   -7.2863    0.0000 C   0  0  0  0  0  0  0  0  0  0  0  0
    7.9610   -7.1267    0.0000 C   0  0  0  0  0  0  0  0  0  0  0  0
    7.9686   -5.7958    0.0000 C   0  0  2  0  0  0  0  0  0  0  0  0
    6.4668   -5.6323    0.0000 C   0  0  0  0  0  0  0  0  0  0  0  0
    5.7519   -6.8720    0.0000 C   0  0  2  0  0  0  0  0  0  0  0  0
    8.4516   -6.4650    0.0000 C   0  0  0  0  0  0  0  0  0  0  0  0
    8.1778   -4.9934    0.0000 O   0  0  0  0  0  0  0  0  0  0  0  0
    5.7519   -6.0429    0.0000 C   0  0  0  0  0  0  0  0  0  0  0  0
    5.0370   -7.2787    0.0000 N   0  0  0  0  0  0  0  0  0  0  0  0
    8.8889   -4.5752    0.0000 C   0  0  0  0  0  0  0  0  0  0  0  0
    9.6037   -4.9858    0.0000 C   0  0  0  0  0  0  0  0  0  0  0  0
    8.8851   -3.7463    0.0000 O   0  0  0  0  0  0  0  0  0  0  0  0
  1  2  1  0  0  0  0
  1  3  1  0  0  0  0
  1  4  1  0  0  0  0
  2  5  1  0  0  0  0
  2  6  1  0  0  0  0
  3  7  1  0  0  0  0
  4  8  1  0  0  0  0
  5  9  1  1  0  0  0
  6 10  1  0  0  0  0
  7 11  1  1  0  0  0
  9 12  1  0  0  0  0
 12 13  1  0  0  0  0
 12 14  2  0  0  0  0
  5  8  1  0  0  0  0
  7 10  1  0  0  0  0
M  END
> <ID>
CHEBI:9173

> <NAME>
slaframine

$$$$

Ketcher 10152109412D 1   1.00000     0.00000     0

 31 35  0     1  0            999 V2000
   12.8886   -6.9576    0.0000 C   0  0  0  0  0  0  0  0  0  0  0  0
   12.5768   -7.9073    0.0000 N   0  0  0  0  0  0  0  0  0  0  0  0
   12.0777   -6.3708    0.0000 C   0  0  0  0  0  0  0  0  0  0  0  0
   13.8663   -6.7499    0.0000 C   0  0  0  0  0  0  0  0  0  0  0  0
   13.0948   -7.9261    0.0000 S   0  0  0  0  0  0  0  0  0  0  0  0
   11.5799   -7.9123    0.0000 C   0  0  0  0  0  0  0  0  0  0  0  0
   13.2441   -8.6453    0.0000 C   0  0  0  0  0  0  0  0  0  0  0  0
   11.2673   -6.9628    0.0000 C   0  0  0  0  0  0  0  0  0  0  0  0
   14.5282   -7.4907    0.0000 N   0  0  0  0  0  0  0  0  0  0  0  0
   14.1594   -5.7901    0.0000 O   0  0  0  0  0  0  0  0  0  0  0  0
   13.9982   -7.4551    0.0000 S   0  0  0  0  0  0  0  0  0  0  0  0
   10.7745   -8.5016    0.0000 N   0  0  0  0  0  0  0  0  0  0  0  0
   14.2204   -8.4417    0.0000 C   0  0  0  0  0  0  0  0  0  0  0  0
   12.9322   -9.5949    0.0000 O   0  0  0  0  0  0  0  0  0  0  0  0
   10.2677   -6.9628    0.0000 C   0  0  0  0  0  0  0  0  0  0  0  0
   11.0451   -5.9762    0.0000 O   0  0  0  0  0  0  0  0  0  0  0  0
    9.9638   -7.9149    0.0000 C   0  0  0  0  0  0  0  0  0  0  0  0
    9.5952   -6.2275    0.0000 C   0  0  0  0  0  0  0  0  0  0  0  0
    8.9955   -8.1343    0.0000 C   0  0  0  0  0  0  0  0  0  0  0  0
    8.6163   -6.4389    0.0000 C   0  0  0  0  0  0  0  0  0  0  0  0
    8.3152   -7.3964    0.0000 C   0  0  0  0  0  0  0  0  0  0  0  0
    8.6917   -9.0864    0.0000 O   0  0  0  0  0  0  0  0  0  0  0  0
    7.3429   -7.6145    0.0000 O   0  0  0  0  0  0  0  0  0  0  0  0
    7.7179   -9.2954    0.0000 C   0  0  0  0  0  0  0  0  0  0  0  0
    6.6666   -6.8778    0.0000 C   0  0  0  0  0  0  0  0  0  0  0  0
   11.7939   -8.8833    0.0000 H   0  0  0  0  0  0  0  0  0  0  0  0
   10.7773   -9.5011    0.0000 C   0  0  0  0  0  0  0  0  0  0  0  0
   12.0755   -5.3712    0.0000 O   0  0  0  0  0  0  0  0  0  0  0  0
   15.5062   -7.2843    0.0000 C   0  0  0  0  0  0  0  0  0  0  0  0
   14.8882   -9.1854    0.0000 C   0  0  0  0  0  0  0  0  0  0  0  0
    7.9428   -5.7005    0.0000 Cl  0  0  0  0  0  0  0  0  0  0  0  0
  1  2  1  0     0  0
  1  3  1  0     0  0
  1  4  1  0     0  0
  1  5  1  6     0  0
  2  6  1  0     0  0
  2  7  1  0     0  0
  3  8  1  0     0  0
  4  9  1  0     0  0
  4 10  2  0     0  0
  5 11  1  0     0  0
  6 12  1  0     0  0
  7 13  1  0     0  0
  7 14  2  0     0  0
  8 15  1  0     0  0
  8 16  1  6     0  0
 12 17  1  0     0  0
 15 18  1  0     0  0
 17 19  1  0     0  0
 18 20  2  0     0  0
 19 21  2  0     0  0
 19 22  1  0     0  0
 21 23  1  0     0  0
 22 24  1  0     0  0
 23 25  1  0     0  0
  6  8  1  0     0  0
  9 13  1  0     0  0
 13 11  1  6     0  0
 15 17  2  0     0  0
 20 21  1  0     0  0
  6 26  1  6     0  0
 12 27  1  0     0  0
  3 28  1  1     0  0
  9 29  1  0     0  0
 13 30  1  0     0  0
 20 31  1  0     0  0
M  END
> <ID>
CHEBI:9243

> <NAME>
sporidesmin A

$$$$
ChEBI
  Marvin  09050514452D          

  6  5  0  0  0  0            999 V2000
    4.3904   -3.4682    0.0000 C   0  0  0  0  0  0  0  0  0  0  0  0
    5.8177   -2.6514    0.0000 O   0  0  0  0  0  0  0  0  0  0  0  0
    5.8177   -3.4764    0.0000 C   0  0  0  0  0  0  0  0  0  0  0  0
    6.5321   -3.8889    0.0000 H   0  0  0  0  0  0  0  0  0  0  0  0
    5.1082   -3.8889    0.0000 C   0  0  0  0  0  0  0  0  0  0  0  0
    5.1082   -4.7139    0.0000 H   0  0  0  0  0  0  0  0  0  0  0  0
  2  3  2  0  0  0  0
  5  3  1  0  0  0  0
  1  5  2  0  0  0  0
  3  4  1  0  0  0  0
  5  6  1  0  0  0  0
M  END
> <ID>
CHEBI:15368

> <NAME>
acrolein

$$$$

Marvin  12220814182D          

  5  4  0  0  0  0            999 V2000
    0.0000    0.0000    0.0000 C   0  0  0  0  0  0  0  0  0  0  0  0
    0.7145    0.4125    0.0000 N   0  0  0  0  0  0  0  0  0  0  0  0
   -0.7145    0.4125    0.0000 N   0  0  0  0  0  0  0  0  0  0  0  0
    0.0000   -0.8250    0.0000 N   0  0  0  0  0  0  0  0  0  0  0  0
    1.4290    0.0000    0.0000 C   0  0  0  0  0  0  0  0  0  0  0  0
  1  2  1  0  0  0  0
  1  3  1  0  0  0  0
  1  4  2  0  0  0  0
  5  2  1  0  0  0  0
M  END
> <ID>
CHEBI:16628

> <NAME>
methylguanidine

$$$$
ChEBI


 26 28  0  0  0  0  0  0  0  0  1 V2000
   11.5649   -8.4388    0.0000 C   0  0  0  0  0  0  0  0  0  0  0  0
   11.5649   -7.6077    0.0000 C   0  0  0  0  0  0  0  0  0  0  0  0
   12.2683   -8.8388    0.0000 C   0  0  0  0  0  0  0  0  0  0  0  0
   10.8580   -8.8388    0.0000 C   0  0  0  0  0  0  0  0  0  0  0  0
   10.8580   -7.1801    0.0000 C   0  0  0  0  0  0  0  0  0  0  0  0
   12.2683   -7.1801    0.0000 O   0  0  0  0  0  0  0  0  0  0  0  0
   13.0097   -8.4388    0.0000 C   0  0  0  0  0  0  0  0  0  0  0  0
   12.2683   -9.6629    0.0000 O   0  0  0  0  0  0  0  0  0  0  0  0
   10.1545   -8.4388    0.0000 C   0  0  0  0  0  0  0  0  0  0  0  0
   10.8580   -9.6491    0.0000 O   0  0  0  0  0  0  0  0  0  0  0  0
   10.1545   -7.5732    0.0000 C   0  0  0  0  0  0  0  0  0  0  0  0
   10.8580   -6.3595    0.0000 C   0  0  0  0  0  0  0  0  0  0  0  0
   13.0097   -7.5732    0.0000 C   0  0  0  0  0  0  0  0  0  0  0  0
   13.7132   -8.8698    0.0000 C   0  0  0  0  0  0  0  0  0  0  0  0
    9.4442   -7.1491    0.0000 O   0  0  0  0  0  0  0  0  0  0  0  0
   11.5649   -5.9594    0.0000 C   0  0  0  0  0  0  0  0  0  0  0  0
   13.7132   -9.7043    0.0000 C   0  0  0  0  0  0  0  0  0  0  0  0
   14.4235   -8.4388    0.0000 C   0  0  0  0  0  0  0  0  0  0  0  0
   11.5649   -5.1388    0.0000 C   0  0  0  0  0  0  0  0  0  0  0  0
   14.4235  -10.0974    0.0000 C   0  0  0  0  0  0  0  0  0  0  0  0
   12.9787  -10.1250    0.0000 O   0  0  0  0  0  0  0  0  0  0  0  0
   15.1580   -8.8388    0.0000 C   0  0  0  0  0  0  0  0  0  0  0  0
   12.2752   -4.7319    0.0000 C   0  0  0  0  0  0  0  0  0  0  0  0
   10.8580   -4.7594    0.0000 C   0  0  0  0  0  0  0  0  0  0  0  0
   15.1235   -9.7043    0.0000 C   0  0  0  0  0  0  0  0  0  0  0  0
   15.8304  -10.1594    0.0000 O   0  0  0  0  0  0  0  0  0  0  0  0
  1  2  1  0  0  0  0
  1  3  1  0  0  0  0
  1  4  2  0  0  0  0
  2  5  2  0  0  0  0
  2  6  1  0  0  0  0
  3  7  1  0  0  0  0
  3  8  2  0  0  0  0
  4  9  1  0  0  0  0
  4 10  1  0  0  0  0
  5 11  1  0  0  0  0
  5 12  1  0  0  0  0
  6 13  1  0  0  0  0
  7 14  1  0  0  0  0
 11 15  1  0  0  0  0
 12 16  1  0  0  0  0
 14 17  2  0  0  0  0
 14 18  1  0  0  0  0
 16 19  2  0  0  0  0
 17 20  1  0  0  0  0
 17 21  1  0  0  0  0
 18 22  2  0  0  0  0
 19 23  1  0  0  0  0
 19 24  1  0  0  0  0
 20 25  2  0  0  0  0
 25 26  1  0  0  0  0
  7 13  1  0  0  0  0
  9 11  2  0  0  0  0
 22 25  1  0  0  0  0
M  END
> <ID>
CHEBI:16832

> <NAME>
kievitone

$$$$

Marvin  03120621152D          

 26 30  0  0  1  0            999 V2000
    0.1306    0.0098    0.0000 C   0  0  0  0  0  0  0  0  0  0  0  0
    0.8451   -0.4027    0.0000 C   0  0  0  0  0  0  0  0  0  0  0  0
   -0.5839   -0.4027    0.0000 C   0  0  0  0  0  0  0  0  0  0  0  0
    0.1306    0.8348    0.0000 O   0  0  0  0  0  0  0  0  0  0  0  0
    0.8451   -1.2277    0.0000 C   0  0  0  0  0  0  0  0  0  0  0  0
    1.6297   -0.1478    0.0000 C   0  0  1  0  0  0  0  0  0  0  0  0
   -0.5839   -1.2277    0.0000 C   0  0  0  0  0  0  0  0  0  0  0  0
   -1.2983    0.0098    0.0000 C   0  0  0  0  0  0  0  0  0  0  0  0
   -0.5839    1.2473    0.0000 C   0  0  0  0  0  0  0  0  0  0  0  0
    1.6297   -1.4826    0.0000 O   0  0  0  0  0  0  0  0  0  0  0  0
    0.1306   -1.6402    0.0000 C   0  0  0  0  0  0  0  0  0  0  0  0
    2.1146   -0.8152    0.0000 C   0  0  1  0  0  0  0  0  0  0  0  0
    2.1146    0.5197    0.0000 C   0  0  0  0  0  0  0  0  0  0  0  0
   -1.2983    0.8348    0.0000 C   0  0  0  0  0  0  0  0  0  0  0  0
   -2.0128   -0.4027    0.0000 O   0  0  0  0  0  0  0  0  0  0  0  0
   -0.5839    2.0723    0.0000 C   0  0  0  0  0  0  0  0  0  0  0  0
    2.8992   -0.5603    0.0000 O   0  0  0  0  0  0  0  0  0  0  0  0
    2.8992    0.2647    0.0000 C   0  0  0  0  0  0  0  0  0  0  0  0
   -2.0128    1.2473    0.0000 C   0  0  0  0  0  0  0  0  0  0  0  0
   -1.2983    2.4848    0.0000 C   0  0  0  0  0  0  0  0  0  0  0  0
   -2.0128    2.0723    0.0000 C   0  0  0  0  0  0  0  0  0  0  0  0
   -2.7273    0.8348    0.0000 O   0  0  0  0  0  0  0  0  0  0  0  0
    1.1448    0.5197    0.0000 H   0  0  0  0  0  0  0  0  0  0  0  0
    2.5995   -1.4826    0.0000 H   0  0  0  0  0  0  0  0  0  0  0  0
   -1.2983   -1.6402    0.0000 O   0  0  0  0  0  0  0  0  0  0  0  0
   -1.2983   -2.4652    0.0000 C   0  0  0  0  0  0  0  0  0  0  0  0
  1  2  1  0  0  0  0
  1  3  2  0  0  0  0
  1  4  1  0  0  0  0
  2  5  2  0  0  0  0
  2  6  1  0  0  0  0
  3  7  1  0  0  0  0
  3  8  1  0  0  0  0
  4  9  1  0  0  0  0
  5 10  1  0  0  0  0
  5 11  1  0  0  0  0
  6 12  1  0  0  0  0
  6 13  1  0  0  0  0
  7 25  1  0  0  0  0
  8 14  1  0  0  0  0
  8 15  2  0  0  0  0
  9 16  1  0  0  0  0
 12 17  1  0  0  0  0
 13 18  2  0  0  0  0
 14 19  1  0  0  0  0
 16 20  2  0  0  0  0
 19 21  2  0  0  0  0
 19 22  1  0  0  0  0
  7 11  2  0  0  0  0
  9 14  2  0  0  0  0
 10 12  1  0  0  0  0
 17 18  1  0  0  0  0
 20 21  1  0  0  0  0
  6 23  1  1  0  0  0
 12 24  1  1  0  0  0
 25 26  1  0  0  0  0
M  END
> <ID>
CHEBI:18227

> <NAME>
sterigmatocystin

$$$$

Ketcher 04181815022D 1   1.00000     0.00000     0

 14 16  0     0  0            999 V2000
    1.1461    0.8090    0.0000 C   0  0  0  0  0  0  0  0  0  0  0  0
    0.1950    0.5000    0.0000 C   0  0  0  0  0  0  0  0  0  0  0  0
    1.7338    0.0000    0.0000 C   0  0  0  0  0  0  0  0  0  0  0  0
    0.1950   -0.5000    0.0000 C   0  0  0  0  0  0  0  0  0  0  0  0
   -0.6710    1.0000    0.0000 C   0  0  0  0  0  0  0  0  0  0  0  0
   -0.6710   -1.0000    0.0000 C   0  0  0  0  0  0  0  0  0  0  0  0
   -1.5370    0.5000    0.0000 C   0  0  0  0  0  0  0  0  0  0  0  0
   -1.5370   -0.5000    0.0000 C   0  0  0  0  0  0  0  0  0  0  0  0
    1.1461   -0.8090    0.0000 N   0  0  0  0  0  0  0  0  0  0  0  0
    1.4552    1.7601    0.0000 C   0  0  0  0  0  0  0  0  0  0  0  0
    2.4062    2.0692    0.0000 S   0  0  0  0  0  0  0  0  0  0  0  0
    0.8674    2.5691    0.0000 N   0  0  0  0  0  0  0  0  0  0  0  0
    2.4061    3.0693    0.0000 C   0  0  0  0  0  0  0  0  0  0  0  0
    1.4551    3.3781    0.0000 C   0  0  0  0  0  0  0  0  0  0  0  0
  1 10  1  0     0  0
  1  2  1  0     0  0
  1  3  2  0     0  0
  2  4  1  0     0  0
  5  2  2  0     0  0
  6  4  2  0     0  0
  5  7  1  0     0  0
  8  6  1  0     0  0
  7  8  2  0     0  0
  3  9  1  0     0  0
  4  9  1  0     0  0
 10 11  1  0     0  0
 10 12  2  0     0  0
 11 13  1  0     0  0
 12 14  1  0     0  0
 13 14  2  0     0  0
M  END
> <ID>
CHEBI:22990

> <NAME>
camalexin

$$$$

Mrv0541 01291410192D          

 17 18  0  0  0  0            999 V2000
    6.4642   -1.7176    0.0000 C   0  0  0  0  0  0  0  0  0  0  0  0
    5.7497   -2.9551    0.0000 C   0  0  0  0  0  0  0  0  0  0  0  0
    7.9324   -2.6195    0.0000 C   0  0  0  0  0  0  0  0  0  0  0  0
    7.1787   -2.9552    0.0000 C   0  0  1  0  0  0  0  0  0  0  0  0
    7.2650   -3.7756    0.0000 C   0  0  0  0  0  0  0  0  0  0  0  0
    8.4844   -3.2327    0.0000 C   0  0  0  0  0  0  0  0  0  0  0  0
    8.0719   -3.9470    0.0000 C   0  0  1  0  0  0  0  0  0  0  0  0
    7.1787   -2.1301    0.0000 C   0  0  1  0  0  0  0  0  0  0  0  0
    5.7497   -2.1301    0.0000 C   0  0  2  0  0  0  0  0  0  0  0  0
    6.4643   -3.3676    0.0000 C   0  0  2  0  0  0  0  0  0  0  0  0
    6.4643   -4.1926    0.0000 C   0  0  0  0  0  0  0  0  0  0  0  0
    5.0352   -1.7176    0.0000 O   0  0  0  0  0  0  0  0  0  0  0  0
    7.8932   -1.7176    0.0000 C   0  0  0  0  0  0  0  0  0  0  0  0
    7.8932   -0.8926    0.0000 O   0  0  0  0  0  0  0  0  0  0  0  0
    7.8730   -5.4585    0.0000 C   0  0  0  0  0  0  0  0  0  0  0  0
    8.2855   -4.7440    0.0000 C   0  0  0  0  0  0  0  0  0  0  0  0
    9.1104   -4.7439    0.0000 C   0  0  0  0  0  0  0  0  0  0  0  0
  4  8  1  0  0  0  0
  4 10  1  0  0  0  0
  8  1  1  0  0  0  0
  1  9  1  0  0  0  0
  9  2  1  0  0  0  0
  2 10  1  0  0  0  0
  4  3  1  6  0  0  0
  3  6  1  0  0  0  0
  4  5  1  1  0  0  0
  5  7  1  0  0  0  0
  7  6  1  0  0  0  0
  7 16  1  1  0  0  0
  8 13  1  6  0  0  0
  9 12  1  6  0  0  0
 10 11  1  6  0  0  0
 13 14  2  0  0  0  0
 16 15  2  0  0  0  0
 16 17  1  0  0  0  0
M  END
> <ID>
CHEBI:27774

> <NAME>
lubimin

$$$$

Marvin  07050614212D          

 35 40  0  0  0  0            999 V2000
   -0.6110    0.8939    0.0000 C   0  0  0  0  0  0  0  0  0  0  0  0
   -1.3254    0.4814    0.0000 C   0  0  0  0  0  0  0  0  0  0  0  0
   -0.6110   -1.5811    0.0000 C   0  0  0  0  0  0  0  0  0  0  0  0
   -1.3254   -1.9936    0.0000 C   0  0  0  0  0  0  0  0  0  0  0  0
   -2.0399   -1.5811    0.0000 C   0  0  0  0  0  0  0  0  0  0  0  0
   -2.7544   -1.9936    0.0000 C   0  0  0  0  0  0  0  0  0  0  0  0
   -3.4688   -0.7561    0.0000 C   0  0  0  0  0  0  0  0  0  0  0  0
   -3.4688   -1.5811    0.0000 C   0  0  2  0  0  0  0  0  0  0  0  0
   -4.1833   -1.9936    0.0000 O   0  0  0  0  0  0  0  0  0  0  0  0
   -2.7544   -0.3436    0.0000 C   0  0  0  0  0  0  0  0  0  0  0  0
    2.1577    0.3238    0.0000 N   0  0  0  0  0  0  0  0  0  0  0  0
    2.8721   -0.0887    0.0000 C   0  0  0  0  0  0  0  0  0  0  0  0
    3.5866    0.3238    0.0000 C   0  0  2  0  0  0  0  0  0  0  0  0
    3.5866    1.1488    0.0000 C   0  0  0  0  0  0  0  0  0  0  0  0
    2.8721    1.5613    0.0000 C   0  0  0  0  0  0  0  0  0  0  0  0
    0.8881   -0.5986    0.0000 C   0  0  0  0  0  0  0  0  0  0  0  0
    1.3731    0.0689    0.0000 C   0  0  1  0  0  0  0  0  0  0  0  0
    1.8580   -0.5986    0.0000 H   0  0  0  0  0  0  0  0  0  0  0  0
   -0.6110   -0.7561    0.0000 C   0  0  2  0  0  0  0  0  0  0  0  0
   -0.6110    0.0689    0.0000 H   0  0  0  0  0  0  0  0  0  0  0  0
   -1.3254   -0.3436    0.0000 C   0  0  1  0  0  0  0  0  0  0  0  0
   -1.3254   -1.1686    0.0000 H   0  0  0  0  0  0  0  0  0  0  0  0
    0.1035   -0.3436    0.0000 C   0  0  1  0  0  0  0  0  0  0  0  0
    0.1035   -1.1686    0.0000 H   0  0  0  0  0  0  0  0  0  0  0  0
    2.1577    1.1488    0.0000 C   0  0  2  0  0  0  0  0  0  0  0  0
    2.1577    1.9738    0.0000 H   0  0  0  0  0  0  0  0  0  0  0  0
    4.3011   -0.0887    0.0000 C   0  0  0  0  0  0  0  0  0  0  0  0
    0.8881    0.7363    0.0000 C   0  0  2  0  0  0  0  0  0  0  0  0
    0.8881    1.5613    0.0000 H   0  0  0  0  0  0  0  0  0  0  0  0
    1.3731    1.4038    0.0000 C   0  0  2  0  0  0  0  0  0  0  0  0
    1.3731    2.2288    0.0000 C   0  0  0  0  0  0  0  0  0  0  0  0
   -2.0399   -0.7561    0.0000 C   0  0  2  0  0  0  0  0  0  0  0  0
   -2.0399    0.0689    0.0000 C   0  0  0  0  0  0  0  0  0  0  0  0
    0.1035    0.4814    0.0000 C   0  0  1  0  0  0  0  0  0  0  0  0
    0.1035    1.3064    0.0000 C   0  0  0  0  0  0  0  0  0  0  0  0
 17 16  1  0  0  0  0
  1  2  1  0  0  0  0
 19 21  1  0  0  0  0
 19  3  1  0  0  0  0
 21 32  1  0  0  0  0
  3  4  1  0  0  0  0
 32  5  1  0  0  0  0
 32 10  1  0  0  0  0
  5  6  1  0  0  0  0
 10  7  1  0  0  0  0
  6  8  1  0  0  0  0
  8  9  1  1  0  0  0
 21  2  1  0  0  0  0
  4  5  2  0  0  0  0
  7  8  1  0  0  0  0
 34  1  1  0  0  0  0
 23 19  1  0  0  0  0
 34 23  1  0  0  0  0
 28 34  1  0  0  0  0
 11 12  1  0  0  0  0
 12 13  1  0  0  0  0
 13 14  1  0  0  0  0
 13 27  1  6  0  0  0
 14 15  1  0  0  0  0
 25 15  1  0  0  0  0
 23 16  1  0  0  0  0
 17 11  1  0  0  0  0
 28 17  1  0  0  0  0
 30 28  1  0  0  0  0
 25 30  1  0  0  0  0
 25 11  1  0  0  0  0
 17 18  1  6  0  0  0
 19 20  1  1  0  0  0
 21 22  1  6  0  0  0
 23 24  1  6  0  0  0
 25 26  1  6  0  0  0
 28 29  1  6  0  0  0
 30 31  1  6  0  0  0
 32 33  1  1  0  0  0
 34 35  1  1  0  0  0
M  END
> <ID>
CHEBI:28374

> <NAME>
solanidine

$$$$

Marvin  06100623032D          

  4  3  0  0  0  0            999 V2000
    0.3572   -0.2062    0.0000 C   0  0  0  0  0  0  0  0  0  0  0  0
   -0.3572    0.2063    0.0000 C   0  0  0  0  0  0  0  0  0  0  0  0
    1.0718    0.2063    0.0000 O   0  0  0  0  0  0  0  0  0  0  0  0
   -1.0718   -0.2062    0.0000 O   0  0  0  0  0  0  0  0  0  0  0  0
  2  1  1  0  0  0  0
  3  1  1  0  0  0  0
  4  2  1  0  0  0  0
M  END
> <ID>
CHEBI:30742

> <NAME>
ethylene glycol

$$$$

  Ketcher 04041717022D 1   1.00000     0.00000     0

  0  0  0     0  0            999 V2000
M  END> <ID>
CHEBI:38224

> <NAME>
fumonisin

$$$$

Mrv0541 03051408392D          

 17 17  0  0  0  0            999 V2000
    7.0466   -1.0525    0.0000 C   0  0  0  0  0  0  0  0  0  0  0  0
    7.7145   -1.5368    0.0000 O   0  0  0  0  0  0  0  0  0  0  0  0
    7.3009   -0.2676    0.0000 C   0  0  0  0  0  0  0  0  0  0  0  0
    8.3815   -1.0513    0.0000 C   0  0  0  0  0  0  0  0  0  0  0  0
    8.1260   -0.2669    0.0000 C   0  0  0  0  0  0  0  0  0  0  0  0
    9.1664   -1.3056    0.0000 C   0  0  0  0  0  0  0  0  0  0  0  0
    9.3385   -2.1125    0.0000 C   0  0  0  0  0  0  0  0  0  0  0  0
   10.1234   -2.3668    0.0000 C   0  0  0  0  0  0  0  0  0  0  0  0
   10.2956   -3.1736    0.0000 O   0  0  0  0  0  0  0  0  0  0  0  0
   10.7360   -1.8142    0.0000 O   0  0  0  0  0  0  0  0  0  0  0  0
    6.2622   -1.3081    0.0000 C   0  0  0  0  0  0  0  0  0  0  0  0
    5.6487   -0.7567    0.0000 C   0  0  0  0  0  0  0  0  0  0  0  0
    4.8643   -1.0123    0.0000 C   0  0  0  0  0  0  0  0  0  0  0  0
    6.8154    0.3994    0.0000 C   0  0  0  0  0  0  0  0  0  0  0  0
    8.6104    0.4009    0.0000 C   0  0  0  0  0  0  0  0  0  0  0  0
    8.2742    1.1543    0.0000 O   0  0  0  0  0  0  0  0  0  0  0  0
    9.4309    0.3153    0.0000 O   0  0  0  0  0  0  0  0  0  0  0  0
  2  1  1  0  0  0  0
  3  1  2  0  0  0  0
  4  2  1  0  0  0  0
  5  3  1  0  0  0  0
  5  4  2  0  0  0  0
  4  6  1  0  0  0  0
  6  7  1  0  0  0  0
  7  8  1  0  0  0  0
  8  9  1  0  0  0  0
  8 10  2  0  0  0  0
  1 11  1  0  0  0  0
 11 12  1  0  0  0  0
 12 13  1  0  0  0  0
  3 14  1  0  0  0  0
  5 15  1  0  0  0  0
 15 16  2  0  0  0  0
 15 17  1  0  0  0  0
M  END
> <ID>
CHEBI:41254

> <NAME>
2-(2-carboxyethyl)-4-methyl-5-propylfuran-3-carboxylic acid

$$$$

  Ketcher 04041717022D 1   1.00000     0.00000     0

  0  0  0     0  0            999 V2000
M  END> <ID>
CHEBI:48041

> <NAME>
microcystin

$$$$

Marvin  04290812242D          

 16 16  0  0  1  0            999 V2000
   -0.7145   -0.4125    0.0000 C   0  0  0  0  0  0  0  0  0  0  0  0
   -0.7145    0.4125    0.0000 C   0  0  0  0  0  0  0  0  0  0  0  0
    0.7145   -0.4125    0.0000 C   0  0  3  0  0  0  0  0  0  0  0  0
    0.0000   -0.8250    0.0000 C   0  0  0  0  0  0  0  0  0  0  0  0
    0.0000    0.8250    0.0000 C   0  0  0  0  0  0  0  0  0  0  0  0
    0.0000    1.6500    0.0000 C   0  0  0  0  0  0  0  0  0  0  0  0
   -1.4289   -0.8250    0.0000 O   0  0  0  0  0  0  0  0  0  0  0  0
    1.5395   -0.4125    0.0000 C   0  0  0  0  0  0  0  0  0  0  0  0
    1.1270   -1.1270    0.0000 C   0  0  0  0  0  0  0  0  0  0  0  0
    1.4289    0.8250    0.0000 C   0  0  0  0  0  0  0  0  0  0  0  0
    2.1434    0.4125    0.0000 C   0  0  0  0  0  0  0  0  0  0  0  0
    2.8579    0.8250    0.0000 C   0  0  2  0  0  0  0  0  0  0  0  0
    2.8579    1.6500    0.0000 O   0  0  0  0  0  0  0  0  0  0  0  0
    3.5724    0.4125    0.0000 C   0  0  0  0  0  0  0  0  0  0  0  0
    0.7145    0.4125    0.0000 C   0  0  2  0  0  0  0  0  0  0  0  0
    0.7145    1.2375    0.0000 O   0  0  0  0  0  0  0  0  0  0  0  0
  1  7  2  0  0  0  0
  2  1  1  0  0  0  0
 15 10  1  0  0  0  0
 15  3  1  0  0  0  0
  3  8  1  0  0  0  0
  3  9  1  0  0  0  0
  4  1  1  0  0  0  0
  3  4  1  0  0  0  0
  5  2  2  0  0  0  0
 15  5  1  0  0  0  0
  5  6  1  0  0  0  0
 10 11  2  0  0  0  0
 12 11  1  0  0  0  0
 12 13  1  6  0  0  0
 12 14  1  0  0  0  0
 15 16  1  1  0  0  0
M  END
> <ID>
CHEBI:49164

> <NAME>
(6S,9R)-vomifoliol

$$$$
ChEBI
  Marvin  02201310192D          

 26 30  0  0  1  0            999 V2000
   10.7337   -6.5860    0.0000 C   0  0  2  0  0  0  0  0  0  0  0  0
   11.4591   -6.1838    0.0000 C   0  0  2  0  0  0  0  0  0  0  0  0
   10.1252   -6.0257    0.0000 C   0  0  0  0  0  0  0  0  0  0  0  0
   10.7200   -7.4144    0.0000 C   0  0  0  0  0  0  0  0  0  0  0  0
   10.0256   -6.9917    0.0000 O   0  0  0  0  0  0  0  0  0  0  0  0
   12.1671   -6.6101    0.0000 C   0  0  0  0  0  0  0  0  0  0  0  0
   11.2975   -5.3725    0.0000 O   0  0  0  0  0  0  0  0  0  0  0  0
   10.4725   -5.2763    0.0000 C   0  0  0  0  0  0  0  0  0  0  0  0
    9.3037   -6.1014    0.0000 C   0  0  0  0  0  0  0  0  0  0  0  0
   11.4315   -7.8407    0.0000 O   0  0  0  0  0  0  0  0  0  0  0  0
   12.1534   -7.4317    0.0000 C   0  0  0  0  0  0  0  0  0  0  0  0
   12.8856   -6.2079    0.0000 C   0  0  0  0  0  0  0  0  0  0  0  0
    9.9946   -4.6026    0.0000 C   0  0  0  0  0  0  0  0  0  0  0  0
    8.8259   -5.4276    0.0000 C   0  0  0  0  0  0  0  0  0  0  0  0
   12.8616   -7.8510    0.0000 C   0  0  0  0  0  0  0  0  0  0  0  0
   13.5903   -6.6273    0.0000 C   0  0  0  0  0  0  0  0  0  0  0  0
    9.1696   -4.6747    0.0000 C   0  0  0  0  0  0  0  0  0  0  0  0
   13.5765   -7.4522    0.0000 C   0  0  0  0  0  0  0  0  0  0  0  0
    8.6952   -4.0010    0.0000 O   0  0  0  0  0  0  0  0  0  0  0  0
   12.1500   -5.7679    0.0000 H   0  0  0  0  0  0  0  0  0  0  0  0
   14.3790   -6.3855    0.0000 C   0  0  0  0  0  0  0  0  0  0  0  0
   14.3568   -7.7201    0.0000 O   0  0  0  0  0  0  0  0  0  0  0  0
   14.8527   -7.0609    0.0000 C   0  0  2  0  0  0  0  0  0  0  0  0
   15.6776   -7.0747    0.0000 C   0  0  0  0  0  0  0  0  0  0  0  0
   16.1020   -6.3672    0.0000 C   0  0  0  0  0  0  0  0  0  0  0  0
   16.0781   -7.7959    0.0000 C   0  0  0  0  0  0  0  0  0  0  0  0
  1  2  1  0  0  0  0
  1  3  1  0  0  0  0
  1  4  1  0  0  0  0
  1  5  1  6  0  0  0
  2  6  1  0  0  0  0
  2  7  1  0  0  0  0
  3  8  2  0  0  0  0
  3  9  1  0  0  0  0
  4 10  1  0  0  0  0
  6 11  1  0  0  0  0
  6 12  2  0  0  0  0
  8 13  1  0  0  0  0
  9 14  2  0  0  0  0
 11 15  2  0  0  0  0
 12 16  1  0  0  0  0
 13 17  2  0  0  0  0
 15 18  1  0  0  0  0
 17 19  1  0  0  0  0
  7  8  1  0  0  0  0
 10 11  1  0  0  0  0
 14 17  1  0  0  0  0
  2 20  1  6  0  0  0
 21 16  1  0  0  0  0
 16 18  2  0  0  0  0
 18 22  1  0  0  0  0
 22 23  1  0  0  0  0
 21 23  1  0  0  0  0
 23 24  1  1  0  0  0
 24 25  1  0  0  0  0
 24 26  2  0  0  0  0
M  END
> <ID>
CHEBI:52086

> <NAME>
glyceollin III

$$$$

Marvin  01121210012D          

 13 14  0  0  0  0            999 V2000
   -2.4161    1.0902    0.0000 C   0  0  0  0  0  0  0  0  0  0  0  0
   -3.1305    0.6777    0.0000 C   0  0  0  0  0  0  0  0  0  0  0  0
   -3.1305   -0.1473    0.0000 C   0  0  0  0  0  0  0  0  0  0  0  0
   -2.4161   -0.5598    0.0000 C   0  0  0  0  0  0  0  0  0  0  0  0
   -1.7016   -0.1473    0.0000 C   0  0  0  0  0  0  0  0  0  0  0  0
   -1.7016    0.6777    0.0000 C   0  0  0  0  0  0  0  0  0  0  0  0
   -0.9871    1.0902    0.0000 O   0  0  0  0  0  0  0  0  0  0  0  0
   -0.9871   -0.5598    0.0000 N   0  0  0  0  0  0  0  0  0  0  0  0
   -0.2727   -0.1473    0.0000 C   0  0  0  0  0  0  0  0  0  0  0  0
   -0.2727    0.6777    0.0000 C   0  0  0  0  0  0  0  0  0  0  0  0
   -0.9871   -1.3848    0.0000 O   0  0  0  0  0  0  0  0  0  0  0  0
    0.4418   -0.5598    0.0000 O   0  0  0  0  0  0  0  0  0  0  0  0
    0.4418    1.0902    0.0000 O   0  0  0  0  0  0  0  0  0  0  0  0
  1  2  1  0  0  0  0
  1  6  2  0  0  0  0
  2  3  2  0  0  0  0
  3  4  1  0  0  0  0
  4  5  2  0  0  0  0
  7  6  1  0  0  0  0
  6  5  1  0  0  0  0
  5  8  1  0  0  0  0
  7 10  1  0  0  0  0
  8  9  1  0  0  0  0
  9 10  1  0  0  0  0
  8 11  1  0  0  0  0
  9 12  2  0  0  0  0
 10 13  1  0  0  0  0
M  END
> <ID>
CHEBI:63558

> <NAME>
DIBOA

$$$$

Marvin  05081215522D          

 37 41  0  0  1  0            999 V2000
    7.7845   -4.5977    0.0000 N   0  0  0  0  0  0  0  0  0  0  0  0
    7.7845   -5.4227    0.0000 C   0  0  2  0  0  0  0  0  0  0  0  0
    7.0700   -4.1852    0.0000 C   0  0  0  0  0  0  0  0  0  0  0  0
    7.0700   -5.8352    0.0000 C   0  0  0  0  0  0  0  0  0  0  0  0
    6.3556   -4.5977    0.0000 C   0  0  1  0  0  0  0  0  0  0  0  0
    6.3556   -5.4227    0.0000 N   0  0  0  0  0  0  0  0  0  0  0  0
    8.5692   -4.3429    0.0000 C   0  0  0  0  0  0  0  0  0  0  0  0
    9.0541   -5.0103    0.0000 C   0  0  0  0  0  0  0  0  0  0  0  0
    8.5693   -5.6777    0.0000 C   0  0  0  0  0  0  0  0  0  0  0  0
    5.6411   -4.1852    0.0000 C   0  0  2  0  0  0  0  0  0  0  0  0
    4.9266   -4.5977    0.0000 C   0  0  0  0  0  0  0  0  0  0  0  0
    4.9266   -5.4227    0.0000 C   0  0  0  0  0  0  0  0  0  0  0  0
    4.1420   -4.3428    0.0000 C   0  0  0  0  0  0  0  0  0  0  0  0
    4.1420   -5.6777    0.0000 N   0  0  0  0  0  0  0  0  0  0  0  0
    3.6570   -5.0103    0.0000 C   0  0  0  0  0  0  0  0  0  0  0  0
    3.8264   -3.5806    0.0000 C   0  0  0  0  0  0  0  0  0  0  0  0
    3.0084   -3.4728    0.0000 C   0  0  0  0  0  0  0  0  0  0  0  0
    2.5061   -4.1273    0.0000 C   0  0  0  0  0  0  0  0  0  0  0  0
    2.8218   -4.8895    0.0000 C   0  0  0  0  0  0  0  0  0  0  0  0
    7.0700   -3.3602    0.0000 O   0  0  0  0  0  0  0  0  0  0  0  0
    7.0700   -6.6602    0.0000 O   0  0  0  0  0  0  0  0  0  0  0  0
    7.8708   -6.2432    0.0000 H   0  0  0  0  0  0  0  0  0  0  0  0
    5.6411   -5.8352    0.0000 C   0  0  2  0  0  0  0  0  0  0  0  0
    3.8871   -6.4623    0.0000 C   0  0  0  0  0  0  0  0  0  0  0  0
    3.0802   -6.6338    0.0000 C   0  0  0  0  0  0  0  0  0  0  0  0
    2.8252   -7.4184    0.0000 C   0  0  0  0  0  0  0  0  0  0  0  0
    3.3773   -8.0315    0.0000 C   0  0  0  0  0  0  0  0  0  0  0  0
    1.6882   -4.0195    0.0000 O   0  0  0  0  0  0  0  0  0  0  0  0
    1.3726   -3.2572    0.0000 C   0  0  0  0  0  0  0  0  0  0  0  0
    2.0183   -7.5900    0.0000 C   0  0  0  0  0  0  0  0  0  0  0  0
    6.3643   -3.8374    0.0000 O   0  0  0  0  0  0  0  0  0  0  0  0
    5.6411   -3.3602    0.0000 O   0  0  0  0  0  0  0  0  0  0  0  0
    6.2245   -6.4186    0.0000 C   0  0  0  0  0  0  0  0  0  0  0  0
    6.0109   -7.2155    0.0000 C   0  0  0  0  0  0  0  0  0  0  0  0
    6.5943   -7.7988    0.0000 C   0  0  0  0  0  0  0  0  0  0  0  0
    5.2140   -7.4290    0.0000 C   0  0  0  0  0  0  0  0  0  0  0  0
    5.0577   -6.4186    0.0000 H   0  0  0  0  0  0  0  0  0  0  0  0
  3  1  1  0  0  0  0
  4  2  1  0  0  0  0
  5  3  1  0  0  0  0
  6  4  1  0  0  0  0
  7  1  1  0  0  0  0
  2  1  1  0  0  0  0
  8  7  1  0  0  0  0
  9  2  1  0  0  0  0
  9  8  1  0  0  0  0
 13 11  1  0  0  0  0
 14 12  1  0  0  0  0
 15 14  1  0  0  0  0
 13 16  1  0  0  0  0
 17 16  2  0  0  0  0
 15 13  2  0  0  0  0
 18 17  1  0  0  0  0
 19 15  1  0  0  0  0
 19 18  2  0  0  0  0
  3 20  2  0  0  0  0
  4 21  2  0  0  0  0
  2 22  1  6  0  0  0
 14 24  1  0  0  0  0
 24 25  1  0  0  0  0
 25 26  2  0  0  0  0
 26 27  1  0  0  0  0
 18 28  1  0  0  0  0
 28 29  1  0  0  0  0
 26 30  1  0  0  0  0
  5 31  1  6  0  0  0
 10 32  1  6  0  0  0
 23  6  1  0  0  0  0
  6  5  1  0  0  0  0
 10  5  1  0  0  0  0
 10 11  1  0  0  0  0
 12 23  1  0  0  0  0
 12 11  2  0  0  0  0
 23 33  1  0  0  0  0
 33 34  2  0  0  0  0
 34 35  1  0  0  0  0
 34 36  1  0  0  0  0
 23 37  1  6  0  0  0
M  END
> <ID>
CHEBI:64531

> <NAME>
fumitremorgin B

$$$$

Marvin  05231216262D          

 46 46  0  0  1  0            999 V2000
   25.2040   -6.2414    0.0000 O   0  0  0  0  0  0  0  0  0  0  0  0
   24.0521   -5.5764    0.0000 C   0  0  0  0  0  0  0  0  0  0  0  0
   22.9003   -6.2414    0.0000 C   0  0  0  0  0  0  0  0  0  0  0  0
   22.9003   -7.5714    0.0000 N   0  0  0  0  0  0  0  0  0  0  0  0
   27.5077   -6.2414    0.0000 C   0  0  0  0  0  0  0  0  0  0  0  0
   27.5077   -7.5714    0.0000 N   0  0  0  0  0  0  0  0  0  0  0  0
   26.3558   -5.5764    0.0000 C   0  0  0  0  0  0  0  0  0  0  0  0
   28.6596   -8.2364    0.0000 C   0  0  0  0  0  0  0  0  0  0  0  0
   28.6596   -9.5664    0.0000 C   0  0  0  0  0  0  0  0  0  0  0  0
   27.5077  -10.2314    0.0000 O   0  0  0  0  0  0  0  0  0  0  0  0
   21.7490   -8.2368    0.0000 C   0  0  0  0  0  0  0  0  0  0  0  0
   22.9008  -10.2311    0.0000 O   0  0  0  0  0  0  0  0  0  0  0  0
   21.7491   -9.5664    0.0000 C   0  0  0  0  0  0  0  0  0  0  0  0
   25.2038  -11.5610    0.0000 N   0  0  0  0  0  0  0  0  0  0  0  0
   24.0520  -12.2257    0.0000 C   0  0  0  0  0  0  0  0  0  0  0  0
   22.9004  -11.5607    0.0000 C   0  0  0  0  0  0  0  0  0  0  0  0
   27.5076  -11.5613    0.0000 C   0  0  0  0  0  0  0  0  0  0  0  0
   26.3558  -12.2262    0.0000 C   0  0  0  0  0  0  0  0  0  0  0  0
   24.0521   -4.2464    0.0000 O   0  0  0  0  0  0  0  0  0  0  0  0
   26.3558   -4.2464    0.0000 C   0  0  0  0  0  0  0  0  0  0  0  0
   27.5076   -3.5814    0.0000 C   0  0  0  0  0  0  0  0  0  0  0  0
   25.2039   -3.5814    0.0000 C   0  0  0  0  0  0  0  0  0  0  0  0
   28.6595   -5.5764    0.0000 O   0  0  0  0  0  0  0  0  0  0  0  0
   29.8114   -7.5714    0.0000 C   0  0  0  0  0  0  0  0  0  0  0  0
   30.9632   -8.2364    0.0000 C   0  0  0  0  0  0  0  0  0  0  0  0
   29.8114  -10.2314    0.0000 O   0  0  0  0  0  0  0  0  0  0  0  0
   28.6594  -12.2264    0.0000 C   0  0  0  0  0  0  0  0  0  0  0  0
   28.6593  -13.5564    0.0000 C   0  0  0  0  0  0  0  0  0  0  0  0
   29.8113  -11.5614    0.0000 C   0  0  0  0  0  0  0  0  0  0  0  0
   26.3557  -13.5562    0.0000 O   0  0  0  0  0  0  0  0  0  0  0  0
   24.0518  -13.5557    0.0000 C   0  0  0  0  0  0  0  0  0  0  0  0
   22.8999  -14.2206    0.0000 C   0  0  0  0  0  0  0  0  0  0  0  0
   25.2035  -14.2209    0.0000 C   0  0  0  0  0  0  0  0  0  0  0  0
   21.7485  -12.2255    0.0000 O   0  0  0  0  0  0  0  0  0  0  0  0
   20.5974  -10.2316    0.0000 C   0  0  0  0  0  0  0  0  0  0  0  0
   19.4455   -9.5667    0.0000 C   0  0  0  0  0  0  0  0  0  0  0  0
   20.5976  -11.5616    0.0000 C   0  0  0  0  0  0  0  0  0  0  0  0
   20.5970   -7.5721    0.0000 O   0  0  0  0  0  0  0  0  0  0  0  0
   21.7485   -5.5764    0.0000 C   0  0  0  0  0  0  0  0  0  0  0  0
   21.7485   -4.2464    0.0000 C   0  0  0  0  0  0  0  0  0  0  0  0
   20.5967   -6.2414    0.0000 C   0  0  0  0  0  0  0  0  0  0  0  0
   24.0523   -8.2362    0.0000 C   0  0  0  0  0  0  0  0  0  0  0  0
   26.3559   -8.2364    0.0000 C   0  0  0  0  0  0  0  0  0  0  0  0
   25.2039  -10.2310    0.0000 C   0  0  0  0  0  0  0  0  0  0  0  0
   32.1150   -7.5713    0.0000 C   0  0  0  0  0  0  0  0  0  0  0  0
   30.9632   -9.5664    0.0000 C   0  0  0  0  0  0  0  0  0  0  0  0
  2  1  1  0  0  0  0
  3  2  1  0  0  0  0
  4  3  1  0  0  0  0
  6  5  1  0  0  0  0
  7  5  1  0  0  0  0
  1  7  1  0  0  0  0
  9  8  1  0  0  0  0
  6  8  1  0  0  0  0
 10  9  1  0  0  0  0
 11  4  1  0  0  0  0
 13 11  1  0  0  0  0
 13 12  1  0  0  0  0
 15 14  1  0  0  0  0
 16 15  1  0  0  0  0
 16 12  1  0  0  0  0
 17 10  1  0  0  0  0
 18 17  1  0  0  0  0
 14 18  1  0  0  0  0
  2 19  2  0  0  0  0
  7 20  1  6  0  0  0
 20 21  1  0  0  0  0
 20 22  1  0  0  0  0
  5 23  2  0  0  0  0
  8 24  1  1  0  0  0
 24 25  1  0  0  0  0
  9 26  2  0  0  0  0
 17 27  1  6  0  0  0
 27 28  1  0  0  0  0
 27 29  1  0  0  0  0
 18 30  2  0  0  0  0
 15 31  1  1  0  0  0
 31 32  1  0  0  0  0
 31 33  1  0  0  0  0
 16 34  2  0  0  0  0
 13 35  1  6  0  0  0
 35 36  1  0  0  0  0
 35 37  1  0  0  0  0
 11 38  2  0  0  0  0
  3 39  1  1  0  0  0
 39 40  1  0  0  0  0
 39 41  1  0  0  0  0
  4 42  1  0  0  0  0
  6 43  1  0  0  0  0
 14 44  1  0  0  0  0
 25 45  1  0  0  0  0
 25 46  1  0  0  0  0
M  END
> <ID>
CHEBI:64650

> <NAME>
enniatin B4

$$$$

Marvin  05241210002D          

 47 47  0  0  1  0            999 V2000
   25.2040   -6.2414    0.0000 O   0  0  0  0  0  0  0  0  0  0  0  0
   24.0521   -5.5764    0.0000 C   0  0  0  0  0  0  0  0  0  0  0  0
   22.9003   -6.2414    0.0000 C   0  0  0  0  0  0  0  0  0  0  0  0
   22.9003   -7.5714    0.0000 N   0  0  0  0  0  0  0  0  0  0  0  0
   27.5077   -6.2414    0.0000 C   0  0  0  0  0  0  0  0  0  0  0  0
   27.5077   -7.5714    0.0000 N   0  0  0  0  0  0  0  0  0  0  0  0
   26.3558   -5.5764    0.0000 C   0  0  0  0  0  0  0  0  0  0  0  0
   28.6596   -8.2364    0.0000 C   0  0  0  0  0  0  0  0  0  0  0  0
   28.6596   -9.5664    0.0000 C   0  0  0  0  0  0  0  0  0  0  0  0
   27.5077  -10.2314    0.0000 O   0  0  0  0  0  0  0  0  0  0  0  0
   21.7490   -8.2368    0.0000 C   0  0  0  0  0  0  0  0  0  0  0  0
   22.9008  -10.2311    0.0000 O   0  0  0  0  0  0  0  0  0  0  0  0
   21.7491   -9.5664    0.0000 C   0  0  0  0  0  0  0  0  0  0  0  0
   25.2038  -11.5610    0.0000 N   0  0  0  0  0  0  0  0  0  0  0  0
   24.0520  -12.2257    0.0000 C   0  0  0  0  0  0  0  0  0  0  0  0
   22.9004  -11.5607    0.0000 C   0  0  0  0  0  0  0  0  0  0  0  0
   27.5076  -11.5613    0.0000 C   0  0  0  0  0  0  0  0  0  0  0  0
   26.3558  -12.2262    0.0000 C   0  0  0  0  0  0  0  0  0  0  0  0
   24.0521   -4.2464    0.0000 O   0  0  0  0  0  0  0  0  0  0  0  0
   26.3558   -4.2464    0.0000 C   0  0  0  0  0  0  0  0  0  0  0  0
   27.5076   -3.5814    0.0000 C   0  0  0  0  0  0  0  0  0  0  0  0
   25.2039   -3.5814    0.0000 C   0  0  0  0  0  0  0  0  0  0  0  0
   28.6595   -5.5764    0.0000 O   0  0  0  0  0  0  0  0  0  0  0  0
   29.8114   -7.5714    0.0000 C   0  0  0  0  0  0  0  0  0  0  0  0
   30.9632   -8.2364    0.0000 C   0  0  0  0  0  0  0  0  0  0  0  0
   29.8114  -10.2314    0.0000 O   0  0  0  0  0  0  0  0  0  0  0  0
   28.6594  -12.2264    0.0000 C   0  0  0  0  0  0  0  0  0  0  0  0
   28.6593  -13.5564    0.0000 C   0  0  0  0  0  0  0  0  0  0  0  0
   29.8113  -11.5614    0.0000 C   0  0  0  0  0  0  0  0  0  0  0  0
   26.3557  -13.5562    0.0000 O   0  0  0  0  0  0  0  0  0  0  0  0
   24.0518  -13.5557    0.0000 C   0  0  0  0  0  0  0  0  0  0  0  0
   22.8999  -14.2206    0.0000 C   0  0  0  0  0  0  0  0  0  0  0  0
   25.2035  -14.2209    0.0000 C   0  0  0  0  0  0  0  0  0  0  0  0
   21.7485  -12.2255    0.0000 O   0  0  0  0  0  0  0  0  0  0  0  0
   20.5974  -10.2316    0.0000 C   0  0  0  0  0  0  0  0  0  0  0  0
   19.4455   -9.5667    0.0000 C   0  0  0  0  0  0  0  0  0  0  0  0
   20.5976  -11.5616    0.0000 C   0  0  0  0  0  0  0  0  0  0  0  0
   20.5970   -7.5721    0.0000 O   0  0  0  0  0  0  0  0  0  0  0  0
   21.7485   -5.5764    0.0000 C   0  0  0  0  0  0  0  0  0  0  0  0
   21.7485   -4.2464    0.0000 C   0  0  0  0  0  0  0  0  0  0  0  0
   20.5967   -6.2414    0.0000 C   0  0  0  0  0  0  0  0  0  0  0  0
   24.0523   -8.2362    0.0000 C   0  0  0  0  0  0  0  0  0  0  0  0
   26.3559   -8.2364    0.0000 C   0  0  0  0  0  0  0  0  0  0  0  0
   25.2039  -10.2310    0.0000 C   0  0  0  0  0  0  0  0  0  0  0  0
   29.8114   -6.2414    0.0000 C   0  0  0  0  0  0  0  0  0  0  0  0
   30.9632   -5.5764    0.0000 C   0  0  0  0  0  0  0  0  0  0  0  0
   25.2034  -15.5509    0.0000 C   0  0  0  0  0  0  0  0  0  0  0  0
  2  1  1  0  0  0  0
  3  2  1  0  0  0  0
  3  4  1  0  0  0  0
  6  5  1  0  0  0  0
  7  5  1  0  0  0  0
  1  7  1  0  0  0  0
  9  8  1  0  0  0  0
  8  6  1  1  0  0  0
 10  9  1  0  0  0  0
 11  4  1  0  0  0  0
 13 11  1  0  0  0  0
 13 12  1  0  0  0  0
 15 14  1  1  0  0  0
 16 15  1  0  0  0  0
 16 12  1  0  0  0  0
 17 10  1  0  0  0  0
 18 17  1  0  0  0  0
 14 18  1  0  0  0  0
  2 19  2  0  0  0  0
  7 20  1  6  0  0  0
 20 21  1  0  0  0  0
 20 22  1  0  0  0  0
  5 23  2  0  0  0  0
  8 24  1  0  0  0  0
 24 25  1  6  0  0  0
  9 26  2  0  0  0  0
 17 27  1  6  0  0  0
 27 28  1  0  0  0  0
 27 29  1  0  0  0  0
 18 30  2  0  0  0  0
 15 31  1  0  0  0  0
 31 32  1  6  0  0  0
 31 33  1  0  0  0  0
 16 34  2  0  0  0  0
 13 35  1  6  0  0  0
 35 36  1  0  0  0  0
 35 37  1  0  0  0  0
 11 38  2  0  0  0  0
  3 39  1  1  0  0  0
 39 40  1  0  0  0  0
 39 41  1  0  0  0  0
  4 42  1  0  0  0  0
  6 43  1  0  0  0  0
 14 44  1  0  0  0  0
 24 45  1  0  0  0  0
 45 46  1  0  0  0  0
 33 47  1  0  0  0  0
M  END
> <ID>
CHEBI:64652

> <NAME>
enniatin A1

$$$$

Marvin  06201210412D          

 19 21  0  0  0  0            999 V2000
    3.1103   -6.2242    0.0000 C   0  0  0  0  0  0  0  0  0  0  0  0
    3.1103   -7.0492    0.0000 C   0  0  0  0  0  0  0  0  0  0  0  0
    3.8116   -7.4616    0.0000 C   0  0  0  0  0  0  0  0  0  0  0  0
    4.5540   -7.0492    0.0000 C   0  0  0  0  0  0  0  0  0  0  0  0
    4.5540   -6.2242    0.0000 C   0  0  0  0  0  0  0  0  0  0  0  0
    3.8116   -5.8117    0.0000 C   0  0  0  0  0  0  0  0  0  0  0  0
    5.2552   -7.4616    0.0000 O   0  0  0  0  0  0  0  0  0  0  0  0
    5.9565   -7.0492    0.0000 C   0  0  0  0  0  0  0  0  0  0  0  0
    5.9565   -6.2242    0.0000 C   0  0  0  0  0  0  0  0  0  0  0  0
    5.2552   -5.8117    0.0000 C   0  0  0  0  0  0  0  0  0  0  0  0
    6.6990   -5.8117    0.0000 C   0  0  0  0  0  0  0  0  0  0  0  0
    6.6990   -4.9867    0.0000 C   0  0  0  0  0  0  0  0  0  0  0  0
    5.9565   -4.5742    0.0000 C   0  0  0  0  0  0  0  0  0  0  0  0
    5.2552   -4.9867    0.0000 C   0  0  0  0  0  0  0  0  0  0  0  0
    3.8116   -4.9867    0.0000 C   0  0  0  0  0  0  0  0  0  0  0  0
    2.4091   -7.4616    0.0000 O   0  0  0  0  0  0  0  0  0  0  0  0
    6.6577   -7.4616    0.0000 O   0  0  0  0  0  0  0  0  0  0  0  0
    7.4002   -6.2242    0.0000 O   0  0  0  0  0  0  0  0  0  0  0  0
    5.9565   -3.7492    0.0000 O   0  0  0  0  0  0  0  0  0  0  0  0
  1  2  2  0  0  0  0
  2  3  1  0  0  0  0
  3  4  2  0  0  0  0
  4  5  1  0  0  0  0
  5  6  2  0  0  0  0
  1  6  1  0  0  0  0
  4  7  1  0  0  0  0
  7  8  1  0  0  0  0
  8  9  1  0  0  0  0
  9 10  1  0  0  0  0
  5 10  1  0  0  0  0
  9 11  2  0  0  0  0
 11 12  1  0  0  0  0
 12 13  2  0  0  0  0
 13 14  1  0  0  0  0
 10 14  2  0  0  0  0
  6 15  1  0  0  0  0
  2 16  1  0  0  0  0
  8 17  2  0  0  0  0
 11 18  1  0  0  0  0
 13 19  1  0  0  0  0
M  END
> <ID>
CHEBI:64983

> <NAME>
alternariol

$$$$

Mrv0541 11131309392D          

 20 22  0  0  0  0            999 V2000
   13.3819   -3.8916    0.0000 C   0  0  0  0  0  0  0  0  0  0  0  0
   13.3807   -4.7190    0.0000 C   0  0  0  0  0  0  0  0  0  0  0  0
   14.0956   -5.1319    0.0000 C   0  0  0  0  0  0  0  0  0  0  0  0
   14.0938   -3.4789    0.0000 C   0  0  0  0  0  0  0  0  0  0  0  0
   14.8091   -3.8880    0.0000 C   0  0  0  0  0  0  0  0  0  0  0  0
   14.8080   -4.7165    0.0000 C   0  0  0  0  0  0  0  0  0  0  0  0
   15.5209   -5.1294    0.0000 C   0  0  0  0  0  0  0  0  0  0  0  0
   16.2396   -4.7185    0.0000 C   0  0  0  0  0  0  0  0  0  0  0  0
   16.2408   -3.8900    0.0000 C   0  0  0  0  0  0  0  0  0  0  0  0
   15.5233   -3.4725    0.0000 O   0  0  0  0  0  0  0  0  0  0  0  0
   16.9527   -5.1291    0.0000 C   0  0  0  0  0  0  0  0  0  0  0  0
   16.9491   -5.9552    0.0000 C   0  0  0  0  0  0  0  0  0  0  0  0
   17.6616   -6.3697    0.0000 C   0  0  0  0  0  0  0  0  0  0  0  0
   18.3782   -5.9591    0.0000 C   0  0  0  0  0  0  0  0  0  0  0  0
   18.3778   -5.1298    0.0000 C   0  0  0  0  0  0  0  0  0  0  0  0
   17.6648   -4.7191    0.0000 C   0  0  0  0  0  0  0  0  0  0  0  0
   16.2330   -6.3650    0.0000 O   0  0  0  0  0  0  0  0  0  0  0  0
   19.0920   -6.3726    0.0000 O   0  0  0  0  0  0  0  0  0  0  0  0
   19.0908   -7.1976    0.0000 C   0  0  0  0  0  0  0  0  0  0  0  0
   12.6673   -3.4793    0.0000 O   0  0  0  0  0  0  0  0  0  0  0  0
  8  9  1  0  0  0  0
  9 10  1  0  0  0  0
  5  6  1  0  0  0  0
 11 12  2  0  0  0  0
  2  3  1  0  0  0  0
 12 13  1  0  0  0  0
  3  6  2  0  0  0  0
 13 14  2  0  0  0  0
  1  2  2  0  0  0  0
 14 15  1  0  0  0  0
  5  4  2  0  0  0  0
 15 16  2  0  0  0  0
 16 11  1  0  0  0  0
  8 11  1  0  0  0  0
  4  1  1  0  0  0  0
 12 17  1  0  0  0  0
  5 10  1  0  0  0  0
 14 18  1  0  0  0  0
  6  7  1  0  0  0  0
 18 19  1  0  0  0  0
  7  8  1  0  0  0  0
  1 20  1  0  0  0  0
M  END
> <ID>
CHEBI:69088

> <NAME>
vestitol

$$$$

Marvin  12141211282D          

 38 42  0  0  0  0            999 V2000
   -2.0888   -1.6463    0.0000 C   0  0  1  0  0  0  0  0  0  0  0  0
   -2.0888   -2.4753    0.0000 C   0  0  1  0  0  0  0  0  0  0  0  0
   -1.3741   -2.8862    0.0000 C   0  0  1  0  0  0  0  0  0  0  0  0
   -1.3741   -1.2280    0.0000 C   0  0  0  0  0  0  0  0  0  0  0  0
   -0.6598   -1.6463    0.0000 C   0  0  1  0  0  0  0  0  0  0  0  0
   -0.6583   -2.4753    0.0000 C   0  0  1  0  0  0  0  0  0  0  0  0
    0.0563   -2.8835    0.0000 C   0  0  0  0  0  0  0  0  0  0  0  0
    0.7718   -2.4727    0.0000 C   0  0  0  0  0  0  0  0  0  0  0  0
    0.0533   -1.2291    0.0000 C   0  0  2  0  0  0  0  0  0  0  0  0
    0.7682   -1.6443    0.0000 C   0  0  2  0  0  0  0  0  0  0  0  0
    0.7681    0.0076    0.0000 C   0  0  0  0  0  0  0  0  0  0  0  0
    0.0507   -0.4044    0.0000 C   0  0  0  0  0  0  0  0  0  0  0  0
    1.4869   -0.4039    0.0000 C   0  0  0  0  0  0  0  0  0  0  0  0
    1.4773   -1.2274    0.0000 C   0  0  1  0  0  0  0  0  0  0  0  0
    2.1875   -1.6430    0.0000 C   0  0  0  0  0  0  0  0  0  0  0  0
    2.9059   -1.2374    0.0000 C   0  0  0  0  0  0  0  0  0  0  0  0
    2.1988    0.0045    0.0000 C   0  0  1  0  0  0  0  0  0  0  0  0
    2.9073   -0.4131    0.0000 C   0  0  2  0  0  0  0  0  0  0  0  0
    3.6160   -0.0118    0.0000 C   0  0  0  0  0  0  0  0  0  0  0  0
    3.6250    0.8095    0.0000 C   0  0  0  0  0  0  0  0  0  0  0  0
    2.9166    1.2270    0.0000 C   0  0  0  0  0  0  0  0  0  0  0  0
    2.1991    0.8273    0.0000 C   0  0  2  0  0  0  0  0  0  0  0  0
   -0.9684   -3.6033    0.0000 C   0  0  0  0  0  0  0  0  0  0  0  0
   -0.6660   -0.8210    0.0000 C   0  0  0  0  0  0  0  0  0  0  0  0
    0.7645   -0.8135    0.0000 C   0  0  0  0  0  0  0  0  0  0  0  0
    3.6176   -0.8227    0.0000 C   0  0  0  0  0  0  0  0  0  0  0  0
    1.4877    1.2470    0.0000 C   0  0  0  0  0  0  0  0  0  0  0  0
    0.0512   -2.0571    0.0000 H   0  0  0  0  0  0  0  0  0  0  0  0
    1.4702   -2.0514    0.0000 C   0  0  0  0  0  0  0  0  0  0  0  0
   -1.7975   -3.6033    0.0000 C   0  0  0  0  0  0  0  0  0  0  0  0
   -2.8041   -2.8881    0.0000 O   0  0  0  0  0  0  0  0  0  0  0  0
   -0.6603   -3.2988    0.0000 H   0  0  0  0  0  0  0  0  0  0  0  0
    3.6176   -1.6518    0.0000 O   0  0  0  0  0  0  0  0  0  0  0  0
    2.1930   -0.8210    0.0000 H   0  0  0  0  0  0  0  0  0  0  0  0
    2.9237    2.0600    0.0000 C   0  0  0  0  0  0  0  0  0  0  0  0
   -1.3899   -4.3239    0.0000 O   0  0  0  0  0  0  0  0  0  0  0  0
   -2.8065   -1.2338    0.0000 O   0  0  0  0  0  0  0  0  0  0  0  0
    4.3332   -0.4101    0.0000 O   0  0  0  0  0  0  0  0  0  0  0  0
  1 37  1  6  0  0  0
  1  2  1  0  0  0  0
  1  4  1  0  0  0  0
  2 31  1  1  0  0  0
  2  3  1  0  0  0  0
  3  6  1  0  0  0  0
  3 23  1  0  0  0  0
  3 30  1  6  0  0  0
  5  4  1  0  0  0  0
  5  6  1  0  0  0  0
  5  9  1  0  0  0  0
  5 24  1  1  0  0  0
  6  7  1  0  0  0  0
  6 32  1  6  0  0  0
  7  8  1  0  0  0  0
  8 10  1  0  0  0  0
  9 10  1  0  0  0  0
  9 12  1  0  0  0  0
  9 28  1  6  0  0  0
 10 14  1  0  0  0  0
 10 25  1  1  0  0  0
 13 11  2  0  0  0  0
 11 12  1  0  0  0  0
 13 14  1  0  0  0  0
 13 17  1  0  0  0  0
 14 15  1  0  0  0  0
 14 29  1  6  0  0  0
 15 16  1  0  0  0  0
 16 18  1  0  0  0  0
 17 18  1  0  0  0  0
 17 22  1  0  0  0  0
 17 34  1  1  0  0  0
 18 19  1  0  0  0  0
 18 26  1  1  0  0  0
 19 20  1  0  0  0  0
 20 21  1  0  0  0  0
 21 22  1  0  0  0  0
 21 35  2  0  0  0  0
 22 27  1  1  0  0  0
 26 33  2  0  0  0  0
 26 38  1  0  0  0  0
 30 36  1  0  0  0  0
M  END
> <ID>
CHEBI:71457

> <NAME>
actinidic acid

$$$$

Marvin  02081316422D          

 59 59  0  0  1  0            999 V2000
   15.9981  -12.2449    0.0000 C   0  0  0  0  0  0  0  0  0  0  0  0
   14.8678  -11.5907    0.0000 O   0  0  0  0  0  0  0  0  0  0  0  0
   13.7177  -12.2548    0.0000 C   0  0  0  0  0  0  0  0  0  0  0  0
   13.7177  -13.5867    0.0000 C   0  0  0  0  0  0  0  0  0  0  0  0
   14.8403  -14.2370    0.0000 C   0  0  0  0  0  0  0  0  0  0  0  0
   15.9982  -13.5729    0.0000 C   0  0  0  0  0  0  0  0  0  0  0  0
   12.5462  -14.2587    0.0000 O   0  0  0  0  0  0  0  0  0  0  0  0
   12.5459  -11.5803    0.0000 C   0  0  0  0  0  0  0  0  0  0  0  0
   14.8404  -15.5817    0.0000 O   0  0  0  0  0  0  0  0  0  0  0  0
   18.2825  -12.2544    0.0000 C   0  0  0  0  0  0  0  0  0  0  0  0
   19.4363  -11.5863    0.0000 C   0  0  0  0  0  0  0  0  0  0  0  0
   20.5866  -12.2544    0.0000 C   0  0  0  0  0  0  0  0  0  0  0  0
   21.7407  -11.5863    0.0000 C   0  0  0  0  0  0  0  0  0  0  0  0
   22.8946  -12.2544    0.0000 C   0  0  0  0  0  0  0  0  0  0  0  0
   24.0449  -11.5863    0.0000 C   0  0  0  0  0  0  0  0  0  0  0  0
   25.1989  -12.2544    0.0000 C   0  0  0  0  0  0  0  0  0  0  0  0
   26.3489  -11.5863    0.0000 C   0  0  0  0  0  0  0  0  0  0  0  0
   27.5029  -12.2544    0.0000 C   0  0  0  0  0  0  0  0  0  0  0  0
   28.6570  -11.5863    0.0000 C   0  0  0  0  0  0  0  0  0  0  0  0
   29.8031  -12.2544    0.0000 C   0  0  0  0  0  0  0  0  0  0  0  0
   30.9611  -11.5863    0.0000 C   0  0  0  0  0  0  0  0  0  0  0  0
   32.1073  -12.2544    0.0000 C   0  0  0  0  0  0  0  0  0  0  0  0
   33.2613  -11.5863    0.0000 C   0  0  0  0  0  0  0  0  0  0  0  0
   34.4153  -12.2544    0.0000 C   0  0  0  0  0  0  0  0  0  0  0  0
   35.5655  -11.5863    0.0000 C   0  0  0  0  0  0  0  0  0  0  0  0
   36.7195  -12.2544    0.0000 C   0  0  0  0  0  0  0  0  0  0  0  0
   37.8695  -11.5863    0.0000 C   0  0  0  0  0  0  0  0  0  0  0  0
   39.0235  -12.2544    0.0000 C   0  0  0  0  0  0  0  0  0  0  0  0
   40.1777  -11.5863    0.0000 C   0  0  0  0  0  0  0  0  0  0  0  0
   41.3276  -12.2544    0.0000 C   0  0  0  0  0  0  0  0  0  0  0  0
   42.4816  -11.5863    0.0000 C   0  0  0  0  0  0  0  0  0  0  0  0
   43.6320  -12.2544    0.0000 C   0  0  0  0  0  0  0  0  0  0  0  0
   44.7858  -11.5863    0.0000 C   0  0  0  0  0  0  0  0  0  0  0  0
   19.4363  -10.2585    0.0000 C   0  0  0  0  0  0  0  0  0  0  0  0
   43.6320  -13.5864    0.0000 C   0  0  0  0  0  0  0  0  0  0  0  0
   39.0235  -13.5863    0.0000 C   0  0  0  0  0  0  0  0  0  0  0  0
   34.4153  -13.5860    0.0000 C   0  0  0  0  0  0  0  0  0  0  0  0
   24.0449  -10.2586    0.0000 C   0  0  0  0  0  0  0  0  0  0  0  0
   28.6570  -10.2583    0.0000 C   0  0  0  0  0  0  0  0  0  0  0  0
   17.1319  -11.5861    0.0000 O   0  0  0  0  0  0  0  0  0  0  0  0
   18.2825  -13.5859    0.0000 O   0  0  0  0  0  0  0  0  0  0  0  0
   17.1568  -14.2387    0.0000 O   0  0  0  0  0  0  0  0  0  0  0  0
   12.5419  -10.2487    0.0000 O   0  0  0  0  0  0  0  0  0  0  0  0
   11.3900   -9.5837    0.0000 C   0  0  0  0  0  0  0  0  0  0  0  0
   10.2382  -10.2487    0.0000 C   0  0  0  0  0  0  0  0  0  0  0  0
    9.0864   -9.5837    0.0000 C   0  0  0  0  0  0  0  0  0  0  0  0
    7.9346  -10.2488    0.0000 C   0  0  0  0  0  0  0  0  0  0  0  0
    9.0865  -12.2436    0.0000 C   0  0  0  0  0  0  0  0  0  0  0  0
    7.9347  -11.5787    0.0000 C   0  0  0  0  0  0  0  0  0  0  0  0
    6.7829   -9.5840    0.0000 C   0  0  0  0  0  0  0  0  0  0  0  0
    5.6313  -10.2491    0.0000 C   0  0  0  0  0  0  0  0  0  0  0  0
    6.7831  -12.2437    0.0000 C   0  0  0  0  0  0  0  0  0  0  0  0
    5.6314  -11.5788    0.0000 C   0  0  0  0  0  0  0  0  0  0  0  0
   11.3899   -8.2537    0.0000 O   0  0  0  0  0  0  0  0  0  0  0  0
    4.4797   -9.5843    0.0000 C   0  0  0  0  0  0  0  0  0  0  0  0
    3.3281  -10.2494    0.0000 C   0  0  0  0  0  0  0  0  0  0  0  0
    4.4800  -12.2438    0.0000 C   0  0  0  0  0  0  0  0  0  0  0  0
    3.3283  -11.5791    0.0000 C   0  0  0  0  0  0  0  0  0  0  0  0
    6.7911  -13.5737    0.0000 C   0  0  0  0  0  0  0  0  0  0  0  0
  1  2  1  0  0  0  0
  2  3  1  0  0  0  0
  3  4  1  0  0  0  0
  4  5  1  0  0  0  0
  5  6  1  0  0  0  0
  1  6  1  0  0  0  0
  4  7  1  6  0  0  0
  3  8  1  1  0  0  0
  5  9  1  1  0  0  0
 10 11  1  0  0  0  0
 11 12  2  0  0  0  0
 12 13  1  0  0  0  0
 13 14  2  0  0  0  0
 14 15  1  0  0  0  0
 15 16  2  0  0  0  0
 16 17  1  0  0  0  0
 17 18  2  0  0  0  0
 18 19  1  0  0  0  0
 19 20  2  0  0  0  0
 20 21  1  0  0  0  0
 21 22  2  0  0  0  0
 22 23  1  0  0  0  0
 23 24  2  0  0  0  0
 24 25  1  0  0  0  0
 25 26  2  0  0  0  0
 26 27  1  0  0  0  0
 27 28  2  0  0  0  0
 28 29  1  0  0  0  0
 29 30  1  0  0  0  0
 30 31  1  0  0  0  0
 31 32  2  0  0  0  0
 32 33  1  0  0  0  0
 11 34  1  0  0  0  0
 32 35  1  0  0  0  0
 28 36  1  0  0  0  0
 24 37  1  0  0  0  0
 15 38  1  0  0  0  0
 19 39  1  0  0  0  0
 10 40  1  0  0  0  0
 10 41  2  0  0  0  0
  1 40  1  1  0  0  0
  6 42  1  6  0  0  0
  8 43  1  0  0  0  0
 44 43  1  0  0  0  0
 45 44  1  0  0  0  0
 46 45  1  0  0  0  0
 47 46  1  0  0  0  0
 49 48  1  0  0  0  0
 50 47  1  0  0  0  0
 51 50  1  0  0  0  0
 52 49  1  0  0  0  0
 53 52  1  0  0  0  0
 44 54  2  0  0  0  0
 55 51  1  0  0  0  0
 56 55  1  0  0  0  0
 57 53  1  0  0  0  0
 58 56  1  0  0  0  0
 58 57  1  0  0  0  0
 52 59  1  0  0  0  0
M  END
> <ID>
CHEBI:71690

> <NAME>
staphyloxanthin

$$$$

Ketcher 01111811342D 1   1.00000     0.00000     0

 26 28  0     1  0            999 V2000
    6.4589   -8.2080    0.0000 C   0  0  0  0  0  0  0  0  0  0  0  0
    5.5892   -8.7102    0.0000 C   0  0  0  0  0  0  0  0  0  0  0  0
    7.3287   -9.7144    0.0000 C   0  0  0  0  0  0  0  0  0  0  0  0
    7.3287   -8.7102    0.0000 C   0  0  0  0  0  0  0  0  0  0  0  0
    9.0682   -9.7144    0.0000 C   0  0  0  0  0  0  0  0  0  0  0  0
    8.1985  -10.2166    0.0000 C   0  0  0  0  0  0  0  0  0  0  0  0
    5.5892   -9.7144    0.0000 C   0  0  0  0  0  0  0  0  0  0  0  0
    8.1985   -8.2080    0.0000 C   0  0  0  0  0  0  0  0  0  0  0  0
    9.0682   -8.7102    0.0000 C   0  0  0  0  0  0  0  0  0  0  0  0
    6.4589  -10.2166    0.0000 C   0  0  0  0  0  0  0  0  0  0  0  0
    9.9380   -8.2080    0.0000 C   0  0  0  0  0  0  0  0  0  0  0  0
    9.9380   -7.2037    0.0000 C   0  0  0  0  0  0  0  0  0  0  0  0
    9.0682   -6.7016    0.0000 C   0  0  0  0  0  0  0  0  0  0  0  0
    8.1985   -7.2037    0.0000 C   0  0  0  0  0  0  0  0  0  0  0  0
   10.8078   -6.7016    0.0000 C   0  0  0  0  0  0  0  0  0  0  0  0
   11.6777   -7.2037    0.0000 C   0  0  0  0  0  0  0  0  0  0  0  0
   10.8078   -8.7102    0.0000 C   0  0  0  0  0  0  0  0  0  0  0  0
    7.3287   -7.7058    0.0000 C   0  0  0  0  0  0  0  0  0  0  0  0
    7.3287  -10.5978    0.0000 H   0  0  0  0  0  0  0  0  0  0  0  0
    8.1985   -9.2124    0.0000 H   0  0  0  0  0  0  0  0  0  0  0  0
    9.0682   -7.7058    0.0000 H   0  0  0  0  0  0  0  0  0  0  0  0
    4.7195  -10.2166    0.0000 O   0  0  0  0  0  0  0  0  0  0  0  0
    7.3287   -6.7016    0.0000 O   0  0  0  0  0  0  0  0  0  0  0  0
    4.7195   -8.2080    0.0000 O   0  0  0  0  0  0  0  0  0  0  0  0
    6.9610  -11.0864    0.0000 C   0  0  0  0  0  0  0  0  0  0  0  0
    5.9567  -11.0863    0.0000 C   0  0  0  0  0  0  0  0  0  0  0  0
  1  2  1  0     0  0
  3 19  1  1     0  0
  3  4  1  0     0  0
  4  1  1  0     0  0
  4 18  1  6     0  0
  6  5  1  0     0  0
  3  6  1  0     0  0
  7  2  1  0     0  0
  4  8  1  0     0  0
  8 14  1  0     0  0
  8 20  1  1     0  0
  8  9  1  0     0  0
  5  9  1  0     0  0
  9 11  1  0     0  0
  9 21  1  6     0  0
  3 10  1  0     0  0
 10  7  1  0     0  0
 11 12  1  0     0  0
 11 17  1  1     0  0
 13 12  2  0     0  0
 12 15  1  0     0  0
 14 13  1  0     0  0
 15 16  2  0     0  0
  7 22  2  0     0  0
 14 23  2  0     0  0
  2 24  1  6     0  0
 25 10  1  0     0  0
 26 10  1  0     0  0
M  END
> <ID>
CHEBI:72664

> <NAME>
(+)-phytocassane A

$$$$

Ketcher 01111812362D 1   1.00000     0.00000     0

 27 29  0     1  0            999 V2000
    4.4979   -8.8117    0.0000 C   0  0  0  0  0  0  0  0  0  0  0  0
    3.6283   -9.3138    0.0000 C   0  0  0  0  0  0  0  0  0  0  0  0
    5.3676  -10.3179    0.0000 C   0  0  0  0  0  0  0  0  0  0  0  0
    5.3676   -9.3138    0.0000 C   0  0  0  0  0  0  0  0  0  0  0  0
    7.1068  -10.3179    0.0000 C   0  0  0  0  0  0  0  0  0  0  0  0
    6.2372  -10.8200    0.0000 C   0  0  0  0  0  0  0  0  0  0  0  0
    3.6283  -10.3179    0.0000 C   0  0  0  0  0  0  0  0  0  0  0  0
    6.2372   -8.8117    0.0000 C   0  0  0  0  0  0  0  0  0  0  0  0
    7.1068   -9.3138    0.0000 C   0  0  0  0  0  0  0  0  0  0  0  0
    4.4979  -10.8200    0.0000 C   0  0  0  0  0  0  0  0  0  0  0  0
    7.9765   -8.8117    0.0000 C   0  0  0  0  0  0  0  0  0  0  0  0
    7.9765   -7.8075    0.0000 C   0  0  0  0  0  0  0  0  0  0  0  0
    7.1068   -7.3055    0.0000 C   0  0  0  0  0  0  0  0  0  0  0  0
    6.2372   -7.8075    0.0000 C   0  0  0  0  0  0  0  0  0  0  0  0
    8.8462   -7.3055    0.0000 C   0  0  0  0  0  0  0  0  0  0  0  0
    9.7159   -7.8075    0.0000 C   0  0  0  0  0  0  0  0  0  0  0  0
    8.8462   -9.3138    0.0000 C   0  0  0  0  0  0  0  0  0  0  0  0
    5.3676   -8.3096    0.0000 C   0  0  0  0  0  0  0  0  0  0  0  0
    5.3676  -11.2011    0.0000 H   0  0  0  0  0  0  0  0  0  0  0  0
    6.2372   -9.8159    0.0000 H   0  0  0  0  0  0  0  0  0  0  0  0
    7.1068   -8.3096    0.0000 H   0  0  0  0  0  0  0  0  0  0  0  0
    2.7587  -10.8200    0.0000 O   0  0  0  0  0  0  0  0  0  0  0  0
    5.3676   -7.3055    0.0000 O   0  0  0  0  0  0  0  0  0  0  0  0
    2.7587   -8.8117    0.0000 O   0  0  0  0  0  0  0  0  0  0  0  0
    4.4979   -7.8075    0.0000 O   0  0  0  0  0  0  0  0  0  0  0  0
    4.9999  -11.6897    0.0000 C   0  0  0  0  0  0  0  0  0  0  0  0
    3.9957  -11.6897    0.0000 C   0  0  0  0  0  0  0  0  0  0  0  0
  1  2  1  0     0  0
  3 19  1  1     0  0
  3  4  1  0     0  0
  4  1  1  0     0  0
  4 18  1  6     0  0
  6  5  1  0     0  0
  3  6  1  0     0  0
  7  2  1  0     0  0
  4  8  1  0     0  0
  8 14  1  0     0  0
  8 20  1  1     0  0
  8  9  1  0     0  0
  5  9  1  0     0  0
  9 11  1  0     0  0
  9 21  1  6     0  0
  3 10  1  0     0  0
 10  7  1  0     0  0
 11 12  1  0     0  0
 11 17  1  1     0  0
 13 12  2  0     0  0
 12 15  1  0     0  0
 14 13  1  0     0  0
 15 16  2  0     0  0
  7 22  1  6     0  0
 14 23  2  0     0  0
  2 24  1  6     0  0
  1 25  1  6     0  0
 26 10  1  0     0  0
 27 10  1  0     0  0
M  END
> <ID>
CHEBI:72666

> <NAME>
(+)-phytocassane B

$$$$

Ketcher 01111813562D 1   1.00000     0.00000     0

 26 28  0     1  0            999 V2000
    4.7284   -8.8130    0.0000 C   0  0  0  0  0  0  0  0  0  0  0  0
    3.8587   -9.3152    0.0000 C   0  0  0  0  0  0  0  0  0  0  0  0
    5.5982  -10.3194    0.0000 C   0  0  0  0  0  0  0  0  0  0  0  0
    5.5982   -9.3152    0.0000 C   0  0  0  0  0  0  0  0  0  0  0  0
    7.3377  -10.3194    0.0000 C   0  0  0  0  0  0  0  0  0  0  0  0
    6.4681  -10.8216    0.0000 C   0  0  0  0  0  0  0  0  0  0  0  0
    3.8587  -10.3194    0.0000 C   0  0  0  0  0  0  0  0  0  0  0  0
    6.4681   -8.8130    0.0000 C   0  0  0  0  0  0  0  0  0  0  0  0
    7.3377   -9.3152    0.0000 C   0  0  0  0  0  0  0  0  0  0  0  0
    4.7284  -10.8216    0.0000 C   0  0  0  0  0  0  0  0  0  0  0  0
    8.2076   -8.8130    0.0000 C   0  0  0  0  0  0  0  0  0  0  0  0
    8.2076   -7.8087    0.0000 C   0  0  0  0  0  0  0  0  0  0  0  0
    7.3377   -7.3066    0.0000 C   0  0  0  0  0  0  0  0  0  0  0  0
    6.4681   -7.8087    0.0000 C   0  0  0  0  0  0  0  0  0  0  0  0
    9.0774   -7.3066    0.0000 C   0  0  0  0  0  0  0  0  0  0  0  0
    9.9472   -7.8087    0.0000 C   0  0  0  0  0  0  0  0  0  0  0  0
    9.0774   -9.3152    0.0000 C   0  0  0  0  0  0  0  0  0  0  0  0
    5.5982   -8.3108    0.0000 C   0  0  0  0  0  0  0  0  0  0  0  0
    5.5982  -11.2027    0.0000 H   0  0  0  0  0  0  0  0  0  0  0  0
    6.4681   -9.8174    0.0000 H   0  0  0  0  0  0  0  0  0  0  0  0
    7.3377   -8.3108    0.0000 H   0  0  0  0  0  0  0  0  0  0  0  0
    2.9891  -10.8216    0.0000 O   0  0  0  0  0  0  0  0  0  0  0  0
    5.5982   -7.3066    0.0000 O   0  0  0  0  0  0  0  0  0  0  0  0
    4.7284   -7.8087    0.0000 O   0  0  0  0  0  0  0  0  0  0  0  0
    5.2306  -11.6914    0.0000 C   0  0  0  0  0  0  0  0  0  0  0  0
    4.2263  -11.6914    0.0000 C   0  0  0  0  0  0  0  0  0  0  0  0
  1  2  1  0     0  0
  3 19  1  1     0  0
  3  4  1  0     0  0
  4  1  1  0     0  0
  4 18  1  6     0  0
  6  5  1  0     0  0
  3  6  1  0     0  0
  7  2  1  0     0  0
  4  8  1  0     0  0
  8 14  1  0     0  0
  8 20  1  1     0  0
  8  9  1  0     0  0
  5  9  1  0     0  0
  9 11  1  0     0  0
  9 21  1  6     0  0
  3 10  1  0     0  0
 10  7  1  0     0  0
 11 12  1  0     0  0
 11 17  1  1     0  0
 13 12  2  0     0  0
 12 15  1  0     0  0
 14 13  1  0     0  0
 15 16  2  0     0  0
  7 22  1  6     0  0
 14 23  2  0     0  0
  1 24  1  6     0  0
 25 10  1  0     0  0
 26 10  1  0     0  0
M  END
> <ID>
CHEBI:72668

> <NAME>
(+)-phytocassane C

$$$$

Ketcher 01111816092D 1   1.00000     0.00000     0

 26 28  0     1  0            999 V2000
    4.6238   -9.4138    0.0000 C   0  0  0  0  0  0  0  0  0  0  0  0
    3.7579   -9.9138    0.0000 C   0  0  0  0  0  0  0  0  0  0  0  0
    5.4899  -10.9137    0.0000 C   0  0  0  0  0  0  0  0  0  0  0  0
    5.4899   -9.9138    0.0000 C   0  0  0  0  0  0  0  0  0  0  0  0
    7.2219  -10.9137    0.0000 C   0  0  0  0  0  0  0  0  0  0  0  0
    6.3559  -11.4136    0.0000 C   0  0  0  0  0  0  0  0  0  0  0  0
    3.7579  -10.9137    0.0000 C   0  0  0  0  0  0  0  0  0  0  0  0
    6.3559   -9.4138    0.0000 C   0  0  0  0  0  0  0  0  0  0  0  0
    7.2219   -9.9138    0.0000 C   0  0  0  0  0  0  0  0  0  0  0  0
    4.6238  -11.4136    0.0000 C   0  0  0  0  0  0  0  0  0  0  0  0
    8.0880   -9.4138    0.0000 C   0  0  0  0  0  0  0  0  0  0  0  0
    8.0880   -8.4137    0.0000 C   0  0  0  0  0  0  0  0  0  0  0  0
    7.2219   -7.9137    0.0000 C   0  0  0  0  0  0  0  0  0  0  0  0
    6.3559   -8.4137    0.0000 C   0  0  0  0  0  0  0  0  0  0  0  0
    8.9540   -7.9137    0.0000 C   0  0  0  0  0  0  0  0  0  0  0  0
    9.8201   -8.4137    0.0000 C   0  0  0  0  0  0  0  0  0  0  0  0
    8.9540   -9.9138    0.0000 C   0  0  0  0  0  0  0  0  0  0  0  0
    5.4899   -8.9137    0.0000 C   0  0  0  0  0  0  0  0  0  0  0  0
    5.4899  -11.9137    0.0000 H   0  0  0  0  0  0  0  0  0  0  0  0
    6.3559  -10.4137    0.0000 H   0  0  0  0  0  0  0  0  0  0  0  0
    7.2219   -8.9137    0.0000 H   0  0  0  0  0  0  0  0  0  0  0  0
    2.8919  -11.4136    0.0000 O   0  0  0  0  0  0  0  0  0  0  0  0
    5.4899   -7.9137    0.0000 O   0  0  0  0  0  0  0  0  0  0  0  0
    2.8919   -9.4138    0.0000 O   0  0  0  0  0  0  0  0  0  0  0  0
    5.1238  -12.2798    0.0000 C   0  0  0  0  0  0  0  0  0  0  0  0
    4.1237  -12.2797    0.0000 C   0  0  0  0  0  0  0  0  0  0  0  0
  1  2  1  0     0  0
  3 19  1  1     0  0
  3  4  1  0     0  0
  4  1  1  0     0  0
  4 18  1  6     0  0
  6  5  1  0     0  0
  3  6  1  0     0  0
  7  2  1  0     0  0
  4  8  1  0     0  0
  8 14  1  0     0  0
  8 20  1  1     0  0
  8  9  1  0     0  0
  5  9  1  0     0  0
  9 11  1  0     0  0
  9 21  1  6     0  0
  3 10  1  0     0  0
 10  7  1  0     0  0
 11 12  1  0     0  0
 11 17  1  1     0  0
 13 12  2  0     0  0
 12 15  1  0     0  0
 14 13  1  0     0  0
 15 16  2  0     0  0
  7 22  1  6     0  0
 14 23  2  0     0  0
  2 24  2  0     0  0
 25 10  1  0     0  0
 26 10  1  0     0  0
M  END
> <ID>
CHEBI:72669

> <NAME>
(+)-phytocassane D

$$$$

Ketcher 01111816242D 1   1.00000     0.00000     0

 26 28  0     1  0            999 V2000
    4.7648   -9.3818    0.0000 C   0  0  0  0  0  0  0  0  0  0  0  0
    3.8951   -9.8840    0.0000 C   0  0  0  0  0  0  0  0  0  0  0  0
    5.6346  -10.8882    0.0000 C   0  0  0  0  0  0  0  0  0  0  0  0
    5.6346   -9.8840    0.0000 C   0  0  0  0  0  0  0  0  0  0  0  0
    7.3741  -10.8882    0.0000 C   0  0  0  0  0  0  0  0  0  0  0  0
    6.5044  -11.3904    0.0000 C   0  0  0  0  0  0  0  0  0  0  0  0
    3.8951  -10.8882    0.0000 C   0  0  0  0  0  0  0  0  0  0  0  0
    6.5044   -9.3818    0.0000 C   0  0  0  0  0  0  0  0  0  0  0  0
    7.3741   -9.8840    0.0000 C   0  0  0  0  0  0  0  0  0  0  0  0
    4.7648  -11.3904    0.0000 C   0  0  0  0  0  0  0  0  0  0  0  0
    8.2439   -9.3818    0.0000 C   0  0  0  0  0  0  0  0  0  0  0  0
    8.2439   -8.3775    0.0000 C   0  0  0  0  0  0  0  0  0  0  0  0
    7.3741   -7.8753    0.0000 C   0  0  0  0  0  0  0  0  0  0  0  0
    6.5044   -8.3775    0.0000 C   0  0  0  0  0  0  0  0  0  0  0  0
    9.1138   -7.8753    0.0000 C   0  0  0  0  0  0  0  0  0  0  0  0
    9.9836   -8.3775    0.0000 C   0  0  0  0  0  0  0  0  0  0  0  0
    9.1138   -9.8840    0.0000 C   0  0  0  0  0  0  0  0  0  0  0  0
    5.6346   -8.8797    0.0000 C   0  0  0  0  0  0  0  0  0  0  0  0
    5.6346  -11.7715    0.0000 H   0  0  0  0  0  0  0  0  0  0  0  0
    6.5044  -10.3862    0.0000 H   0  0  0  0  0  0  0  0  0  0  0  0
    7.3741   -8.8797    0.0000 H   0  0  0  0  0  0  0  0  0  0  0  0
    3.0254  -11.3904    0.0000 O   0  0  0  0  0  0  0  0  0  0  0  0
    5.6346   -7.8753    0.0000 O   0  0  0  0  0  0  0  0  0  0  0  0
    4.7648   -8.3775    0.0000 O   0  0  0  0  0  0  0  0  0  0  0  0
    5.2670  -12.2602    0.0000 C   0  0  0  0  0  0  0  0  0  0  0  0
    4.2625  -12.2602    0.0000 C   0  0  0  0  0  0  0  0  0  0  0  0
  1  2  1  0     0  0
  3 19  1  1     0  0
  3  4  1  0     0  0
  4  1  1  0     0  0
  4 18  1  6     0  0
  6  5  1  0     0  0
  3  6  1  0     0  0
  7  2  1  0     0  0
  4  8  1  0     0  0
  8 14  1  0     0  0
  8 20  1  1     0  0
  8  9  1  0     0  0
  5  9  1  0     0  0
  9 11  1  0     0  0
  9 21  1  6     0  0
  3 10  1  0     0  0
 10  7  1  0     0  0
 11 12  1  0     0  0
 11 17  1  1     0  0
 13 12  2  0     0  0
 12 15  1  0     0  0
 14 13  1  0     0  0
 15 16  2  0     0  0
  7 22  2  0     0  0
 14 23  2  0     0  0
  1 24  1  6     0  0
 25 10  1  0     0  0
 26 10  1  0     0  0
M  END
> <ID>
CHEBI:72675

> <NAME>
(+)-phytocassane E

$$$$

Marvin  03041310442D          

 26 30  0  0  1  0            999 V2000
    0.1306    0.0098    0.0000 C   0  0  0  0  0  0  0  0  0  0  0  0
    0.8451   -0.4027    0.0000 C   0  0  0  0  0  0  0  0  0  0  0  0
   -0.5839   -0.4027    0.0000 C   0  0  0  0  0  0  0  0  0  0  0  0
    0.1306    0.8348    0.0000 O   0  0  0  0  0  0  0  0  0  0  0  0
    0.8451   -1.2277    0.0000 C   0  0  0  0  0  0  0  0  0  0  0  0
    1.6297   -0.1478    0.0000 C   0  0  1  0  0  0  0  0  0  0  0  0
   -0.5839   -1.2277    0.0000 C   0  0  0  0  0  0  0  0  0  0  0  0
   -1.2983    0.0098    0.0000 C   0  0  0  0  0  0  0  0  0  0  0  0
   -0.5839    1.2473    0.0000 C   0  0  0  0  0  0  0  0  0  0  0  0
    1.6297   -1.4826    0.0000 O   0  0  0  0  0  0  0  0  0  0  0  0
    0.1306   -1.6402    0.0000 C   0  0  0  0  0  0  0  0  0  0  0  0
    2.1146   -0.8152    0.0000 C   0  0  1  0  0  0  0  0  0  0  0  0
    2.1146    0.5197    0.0000 C   0  0  0  0  0  0  0  0  0  0  0  0
   -1.2983    0.8348    0.0000 C   0  0  0  0  0  0  0  0  0  0  0  0
   -2.0128   -0.4027    0.0000 O   0  0  0  0  0  0  0  0  0  0  0  0
   -0.5839    2.0723    0.0000 C   0  0  0  0  0  0  0  0  0  0  0  0
    2.8992   -0.5603    0.0000 O   0  0  0  0  0  0  0  0  0  0  0  0
    2.8992    0.2647    0.0000 C   0  0  0  0  0  0  0  0  0  0  0  0
   -2.0128    1.2473    0.0000 C   0  0  0  0  0  0  0  0  0  0  0  0
   -1.2983    2.4848    0.0000 C   0  0  0  0  0  0  0  0  0  0  0  0
   -2.0128    2.0723    0.0000 C   0  0  0  0  0  0  0  0  0  0  0  0
   -2.7273    0.8348    0.0000 O   0  0  0  0  0  0  0  0  0  0  0  0
    1.1448    0.5197    0.0000 H   0  0  0  0  0  0  0  0  0  0  0  0
    2.5995   -1.4826    0.0000 H   0  0  0  0  0  0  0  0  0  0  0  0
   -1.2983   -1.6402    0.0000 O   0  0  0  0  0  0  0  0  0  0  0  0
   -1.2983   -2.4652    0.0000 C   0  0  0  0  0  0  0  0  0  0  0  0
  1  2  1  0  0  0  0
  1  3  2  0  0  0  0
  1  4  1  0  0  0  0
  2  5  2  0  0  0  0
  2  6  1  0  0  0  0
  3  7  1  0  0  0  0
  3  8  1  0  0  0  0
  4  9  1  0  0  0  0
  5 10  1  0  0  0  0
  5 11  1  0  0  0  0
  6 12  1  0  0  0  0
  6 13  1  0  0  0  0
  7 25  1  0  0  0  0
  8 14  1  0  0  0  0
  8 15  2  0  0  0  0
  9 16  1  0  0  0  0
 12 17  1  0  0  0  0
 13 18  1  0  0  0  0
 14 19  1  0  0  0  0
 16 20  2  0  0  0  0
 19 21  2  0  0  0  0
 19 22  1  0  0  0  0
  7 11  2  0  0  0  0
  9 14  2  0  0  0  0
 10 12  1  0  0  0  0
 17 18  1  0  0  0  0
 20 21  1  0  0  0  0
  6 23  1  1  0  0  0
 12 24  1  1  0  0  0
 25 26  1  0  0  0  0
M  END
> <ID>
CHEBI:72677

> <NAME>
dihydrosterigmatocystin

$$$$

Marvin  03041311582D          

 27 31  0  0  1  0            999 V2000
    0.1306    0.0098    0.0000 C   0  0  0  0  0  0  0  0  0  0  0  0
    0.8451   -0.4027    0.0000 C   0  0  0  0  0  0  0  0  0  0  0  0
   -0.5839   -0.4027    0.0000 C   0  0  0  0  0  0  0  0  0  0  0  0
    0.1306    0.8348    0.0000 O   0  0  0  0  0  0  0  0  0  0  0  0
    0.8451   -1.2277    0.0000 C   0  0  0  0  0  0  0  0  0  0  0  0
    1.6297   -0.1478    0.0000 C   0  0  1  0  0  0  0  0  0  0  0  0
   -0.5839   -1.2277    0.0000 C   0  0  0  0  0  0  0  0  0  0  0  0
   -1.2983    0.0098    0.0000 C   0  0  0  0  0  0  0  0  0  0  0  0
   -0.5839    1.2473    0.0000 C   0  0  0  0  0  0  0  0  0  0  0  0
    1.6297   -1.4826    0.0000 O   0  0  0  0  0  0  0  0  0  0  0  0
    0.1306   -1.6402    0.0000 C   0  0  0  0  0  0  0  0  0  0  0  0
    2.1146   -0.8152    0.0000 C   0  0  1  0  0  0  0  0  0  0  0  0
    2.1146    0.5197    0.0000 C   0  0  0  0  0  0  0  0  0  0  0  0
   -1.2983    0.8348    0.0000 C   0  0  0  0  0  0  0  0  0  0  0  0
   -2.0128   -0.4027    0.0000 O   0  0  0  0  0  0  0  0  0  0  0  0
   -0.5839    2.0723    0.0000 C   0  0  0  0  0  0  0  0  0  0  0  0
    2.8992   -0.5603    0.0000 O   0  0  0  0  0  0  0  0  0  0  0  0
    2.8992    0.2647    0.0000 C   0  0  0  0  0  0  0  0  0  0  0  0
   -2.0128    1.2473    0.0000 C   0  0  0  0  0  0  0  0  0  0  0  0
   -1.2983    2.4848    0.0000 C   0  0  0  0  0  0  0  0  0  0  0  0
   -2.0128    2.0723    0.0000 C   0  0  0  0  0  0  0  0  0  0  0  0
   -2.7273    0.8348    0.0000 O   0  0  0  0  0  0  0  0  0  0  0  0
    1.1448    0.5197    0.0000 H   0  0  0  0  0  0  0  0  0  0  0  0
    2.5995   -1.4826    0.0000 H   0  0  0  0  0  0  0  0  0  0  0  0
   -1.2983   -1.6402    0.0000 O   0  0  0  0  0  0  0  0  0  0  0  0
   -1.2983   -2.4652    0.0000 C   0  0  0  0  0  0  0  0  0  0  0  0
   -3.4418    1.2473    0.0000 C   0  0  0  0  0  0  0  0  0  0  0  0
  1  2  1  0  0  0  0
  1  3  2  0  0  0  0
  1  4  1  0  0  0  0
  2  5  2  0  0  0  0
  2  6  1  0  0  0  0
  3  7  1  0  0  0  0
  3  8  1  0  0  0  0
  4  9  1  0  0  0  0
  5 10  1  0  0  0  0
  5 11  1  0  0  0  0
  6 12  1  0  0  0  0
  6 13  1  0  0  0  0
  7 25  1  0  0  0  0
  8 14  1  0  0  0  0
  8 15  2  0  0  0  0
  9 16  1  0  0  0  0
 12 17  1  0  0  0  0
 13 18  1  0  0  0  0
 14 19  1  0  0  0  0
 16 20  2  0  0  0  0
 19 21  2  0  0  0  0
 19 22  1  0  0  0  0
  7 11  2  0  0  0  0
  9 14  2  0  0  0  0
 10 12  1  0  0  0  0
 17 18  1  0  0  0  0
 20 21  1  0  0  0  0
  6 23  1  1  0  0  0
 12 24  1  1  0  0  0
 25 26  1  0  0  0  0
 22 27  1  0  0  0  0
M  END
> <ID>
CHEBI:72678

> <NAME>
8-O-methyldihydrosterigmatocystin

$$$$

Marvin  03041312252D          

 28 32  0  0  1  0            999 V2000
    0.1306    0.0098    0.0000 C   0  0  0  0  0  0  0  0  0  0  0  0
    0.8451   -0.4027    0.0000 C   0  0  0  0  0  0  0  0  0  0  0  0
   -0.5839   -0.4027    0.0000 C   0  0  0  0  0  0  0  0  0  0  0  0
    0.1306    0.8348    0.0000 O   0  0  0  0  0  0  0  0  0  0  0  0
    0.8451   -1.2277    0.0000 C   0  0  0  0  0  0  0  0  0  0  0  0
    1.6297   -0.1478    0.0000 C   0  0  1  0  0  0  0  0  0  0  0  0
   -0.5839   -1.2277    0.0000 C   0  0  0  0  0  0  0  0  0  0  0  0
   -1.2983    0.0098    0.0000 C   0  0  0  0  0  0  0  0  0  0  0  0
   -0.5839    1.2473    0.0000 C   0  0  0  0  0  0  0  0  0  0  0  0
    1.6297   -1.4826    0.0000 O   0  0  0  0  0  0  0  0  0  0  0  0
    0.1306   -1.6402    0.0000 C   0  0  0  0  0  0  0  0  0  0  0  0
    2.1146   -0.8152    0.0000 C   0  0  1  0  0  0  0  0  0  0  0  0
    2.1146    0.5197    0.0000 C   0  0  0  0  0  0  0  0  0  0  0  0
   -1.2983    0.8348    0.0000 C   0  0  0  0  0  0  0  0  0  0  0  0
   -2.0128   -0.4027    0.0000 O   0  0  0  0  0  0  0  0  0  0  0  0
   -0.5839    2.0723    0.0000 C   0  0  0  0  0  0  0  0  0  0  0  0
    2.8992   -0.5603    0.0000 O   0  0  0  0  0  0  0  0  0  0  0  0
    2.8992    0.2647    0.0000 C   0  0  0  0  0  0  0  0  0  0  0  0
   -2.0128    1.2473    0.0000 C   0  0  0  0  0  0  0  0  0  0  0  0
   -1.2983    2.4848    0.0000 C   0  0  0  0  0  0  0  0  0  0  0  0
   -2.0128    2.0723    0.0000 C   0  0  0  0  0  0  0  0  0  0  0  0
   -2.7273    0.8348    0.0000 O   0  0  0  0  0  0  0  0  0  0  0  0
    1.1448    0.5197    0.0000 H   0  0  0  0  0  0  0  0  0  0  0  0
    2.5995   -1.4826    0.0000 H   0  0  0  0  0  0  0  0  0  0  0  0
   -1.2983   -1.6402    0.0000 O   0  0  0  0  0  0  0  0  0  0  0  0
   -1.2983   -2.4652    0.0000 C   0  0  0  0  0  0  0  0  0  0  0  0
    0.1306    2.4848    0.0000 O   0  0  0  0  0  0  0  0  0  0  0  0
   -3.4418    1.2473    0.0000 C   0  0  0  0  0  0  0  0  0  0  0  0
  1  2  1  0  0  0  0
  1  3  2  0  0  0  0
  1  4  1  0  0  0  0
  2  5  2  0  0  0  0
  2  6  1  0  0  0  0
  3  7  1  0  0  0  0
  3  8  1  0  0  0  0
  4  9  1  0  0  0  0
  5 10  1  0  0  0  0
  5 11  1  0  0  0  0
  6 12  1  0  0  0  0
  6 13  1  0  0  0  0
  7 25  1  0  0  0  0
  8 14  1  0  0  0  0
  8 15  2  0  0  0  0
  9 16  1  0  0  0  0
 12 17  1  0  0  0  0
 13 18  1  0  0  0  0
 14 19  1  0  0  0  0
 16 20  2  0  0  0  0
 19 21  2  0  0  0  0
 19 22  1  0  0  0  0
  7 11  2  0  0  0  0
  9 14  2  0  0  0  0
 10 12  1  0  0  0  0
 17 18  1  0  0  0  0
 20 21  1  0  0  0  0
  6 23  1  1  0  0  0
 12 24  1  1  0  0  0
 25 26  1  0  0  0  0
 16 27  1  0  0  0  0
 22 28  1  0  0  0  0
M  END
> <ID>
CHEBI:72679

> <NAME>
11-hydroxy-O-methyldihydrosterigmatocystin

$$$$

Marvin  03041316482D          

 28 32  0  0  1  0            999 V2000
    0.1306    0.0098    0.0000 C   0  0  0  0  0  0  0  0  0  0  0  0
    0.8451   -0.4027    0.0000 C   0  0  0  0  0  0  0  0  0  0  0  0
   -0.5839   -0.4027    0.0000 C   0  0  0  0  0  0  0  0  0  0  0  0
    0.1306    0.8348    0.0000 O   0  0  0  0  0  0  0  0  0  0  0  0
    0.8451   -1.2277    0.0000 C   0  0  0  0  0  0  0  0  0  0  0  0
    1.6297   -0.1478    0.0000 C   0  0  1  0  0  0  0  0  0  0  0  0
   -0.5839   -1.2277    0.0000 C   0  0  0  0  0  0  0  0  0  0  0  0
   -1.2983    0.0098    0.0000 C   0  0  0  0  0  0  0  0  0  0  0  0
   -0.5839    1.2473    0.0000 C   0  0  0  0  0  0  0  0  0  0  0  0
    1.6297   -1.4826    0.0000 O   0  0  0  0  0  0  0  0  0  0  0  0
    0.1306   -1.6402    0.0000 C   0  0  0  0  0  0  0  0  0  0  0  0
    2.1146   -0.8152    0.0000 C   0  0  1  0  0  0  0  0  0  0  0  0
    2.1146    0.5197    0.0000 C   0  0  0  0  0  0  0  0  0  0  0  0
   -1.2983    0.8348    0.0000 C   0  0  0  0  0  0  0  0  0  0  0  0
   -2.0128   -0.4027    0.0000 O   0  0  0  0  0  0  0  0  0  0  0  0
   -0.5839    2.0723    0.0000 C   0  0  0  0  0  0  0  0  0  0  0  0
    2.8992   -0.5603    0.0000 O   0  0  0  0  0  0  0  0  0  0  0  0
    2.8992    0.2647    0.0000 C   0  0  0  0  0  0  0  0  0  0  0  0
   -2.0128    1.2473    0.0000 C   0  0  0  0  0  0  0  0  0  0  0  0
   -1.2983    2.4848    0.0000 C   0  0  0  0  0  0  0  0  0  0  0  0
   -2.0128    2.0723    0.0000 C   0  0  0  0  0  0  0  0  0  0  0  0
   -2.7273    0.8348    0.0000 O   0  0  0  0  0  0  0  0  0  0  0  0
    1.1448    0.5197    0.0000 H   0  0  0  0  0  0  0  0  0  0  0  0
    2.5995   -1.4826    0.0000 H   0  0  0  0  0  0  0  0  0  0  0  0
   -1.2983   -1.6402    0.0000 O   0  0  0  0  0  0  0  0  0  0  0  0
   -1.2983   -2.4652    0.0000 C   0  0  0  0  0  0  0  0  0  0  0  0
    0.1306    2.4848    0.0000 O   0  0  0  0  0  0  0  0  0  0  0  0
   -3.4418    1.2473    0.0000 C   0  0  0  0  0  0  0  0  0  0  0  0
  1  2  1  0  0  0  0
  1  3  2  0  0  0  0
  1  4  1  0  0  0  0
  2  5  2  0  0  0  0
  2  6  1  0  0  0  0
  3  7  1  0  0  0  0
  3  8  1  0  0  0  0
  4  9  1  0  0  0  0
  5 10  1  0  0  0  0
  5 11  1  0  0  0  0
  6 12  1  0  0  0  0
  6 13  1  0  0  0  0
  7 25  1  0  0  0  0
  8 14  1  0  0  0  0
  8 15  2  0  0  0  0
  9 16  1  0  0  0  0
 12 17  1  0  0  0  0
 13 18  2  0  0  0  0
 14 19  1  0  0  0  0
 16 20  2  0  0  0  0
 19 21  2  0  0  0  0
 19 22  1  0  0  0  0
  7 11  2  0  0  0  0
  9 14  2  0  0  0  0
 10 12  1  0  0  0  0
 17 18  1  0  0  0  0
 20 21  1  0  0  0  0
  6 23  1  1  0  0  0
 12 24  1  1  0  0  0
 25 26  1  0  0  0  0
 16 27  1  0  0  0  0
 22 28  1  0  0  0  0
M  END
> <ID>
CHEBI:72680

> <NAME>
11-hydroxy-O-methylsterigmatocystin

$$$$

Marvin  03141316252D          

 30 34  0  0  1  0            999 V2000
    9.7396   -5.2034    0.0000 N   0  0  0  0  0  0  0  0  0  0  0  0
    9.7396   -6.0283    0.0000 C   0  0  2  0  0  0  0  0  0  0  0  0
    9.0251   -4.7909    0.0000 C   0  0  0  0  0  0  0  0  0  0  0  0
    9.0251   -6.4408    0.0000 C   0  0  0  0  0  0  0  0  0  0  0  0
    8.3106   -5.2034    0.0000 C   0  0  1  0  0  0  0  0  0  0  0  0
    8.3106   -6.0283    0.0000 N   0  0  0  0  0  0  0  0  0  0  0  0
   10.5242   -4.9485    0.0000 C   0  0  0  0  0  0  0  0  0  0  0  0
   11.0091   -5.6159    0.0000 C   0  0  0  0  0  0  0  0  0  0  0  0
   10.5243   -6.2833    0.0000 C   0  0  0  0  0  0  0  0  0  0  0  0
    7.5962   -4.7909    0.0000 C   0  0  0  0  0  0  0  0  0  0  0  0
    6.8817   -5.2034    0.0000 C   0  0  0  0  0  0  0  0  0  0  0  0
    6.1280   -4.8678    0.0000 C   0  0  0  0  0  0  0  0  0  0  0  0
    6.0770   -6.1954    0.0000 N   0  0  0  0  0  0  0  0  0  0  0  0
    5.5760   -5.4810    0.0000 C   0  0  0  0  0  0  0  0  0  0  0  0
    5.8938   -4.0768    0.0000 C   0  0  0  0  0  0  0  0  0  0  0  0
    5.0916   -3.8841    0.0000 C   0  0  0  0  0  0  0  0  0  0  0  0
    4.5236   -4.4825    0.0000 C   0  0  0  0  0  0  0  0  0  0  0  0
    4.7579   -5.2735    0.0000 C   0  0  0  0  0  0  0  0  0  0  0  0
    9.0251   -3.9659    0.0000 O   0  0  0  0  0  0  0  0  0  0  0  0
    9.0251   -7.2658    0.0000 O   0  0  0  0  0  0  0  0  0  0  0  0
    9.8258   -6.8488    0.0000 H   0  0  0  0  0  0  0  0  0  0  0  0
    7.5100   -7.2613    0.0000 C   0  0  0  0  0  0  0  0  0  0  0  0
    6.7955   -7.6738    0.0000 C   0  0  0  0  0  0  0  0  0  0  0  0
    6.0810   -7.2613    0.0000 C   0  0  0  0  0  0  0  0  0  0  0  0
    6.7955   -8.4988    0.0000 C   0  0  0  0  0  0  0  0  0  0  0  0
    3.7267   -4.2690    0.0000 O   0  0  0  0  0  0  0  0  0  0  0  0
    6.8839   -6.0238    0.0000 C   0  0  0  0  0  0  0  0  0  0  0  0
    7.5100   -6.4363    0.0000 C   0  0  1  0  0  0  0  0  0  0  0  0
    3.1433   -4.8523    0.0000 C   0  0  0  0  0  0  0  0  0  0  0  0
    8.3106   -4.3784    0.0000 H   0  0  0  0  0  0  0  0  0  0  0  0
  3  1  1  0  0  0  0
  4  2  1  0  0  0  0
  5  3  1  0  0  0  0
  6  4  1  0  0  0  0
  7  1  1  0  0  0  0
  2  1  1  0  0  0  0
  8  7  1  0  0  0  0
  9  2  1  0  0  0  0
  9  8  1  0  0  0  0
 12 11  1  0  0  0  0
 13 27  1  0  0  0  0
 14 13  1  0  0  0  0
 12 15  2  0  0  0  0
 16 15  1  0  0  0  0
 14 12  1  0  0  0  0
 17 16  2  0  0  0  0
 18 14  2  0  0  0  0
 18 17  1  0  0  0  0
  3 19  2  0  0  0  0
  4 20  2  0  0  0  0
  2 21  1  6  0  0  0
 28 22  1  1  0  0  0
 22 23  2  0  0  0  0
 23 24  1  0  0  0  0
 23 25  1  0  0  0  0
 17 26  1  0  0  0  0
 10 11  1  0  0  0  0
 10  5  1  0  0  0  0
  6  5  1  0  0  0  0
 28  6  1  0  0  0  0
 27 28  1  0  0  0  0
 27 11  2  0  0  0  0
 26 29  1  0  0  0  0
  5 30  1  6  0  0  0
M  END
> <ID>
CHEBI:72763

> <NAME>
fumitremorgin C

$$$$

Marvin  03151311422D          

 44 49  0  0  1  0            999 V2000
    9.7396   -5.2034    0.0000 N   0  0  0  0  0  0  0  0  0  0  0  0
    9.7396   -6.0283    0.0000 C   0  0  2  0  0  0  0  0  0  0  0  0
    9.0251   -4.7909    0.0000 C   0  0  0  0  0  0  0  0  0  0  0  0
    9.0251   -6.4408    0.0000 C   0  0  0  0  0  0  0  0  0  0  0  0
    8.3106   -5.2034    0.0000 C   0  0  1  0  0  0  0  0  0  0  0  0
    8.3106   -6.0283    0.0000 N   0  0  0  0  0  0  0  0  0  0  0  0
   10.5242   -4.9485    0.0000 C   0  0  0  0  0  0  0  0  0  0  0  0
   11.0091   -5.6159    0.0000 C   0  0  0  0  0  0  0  0  0  0  0  0
   10.5243   -6.2833    0.0000 C   0  0  0  0  0  0  0  0  0  0  0  0
    7.5962   -4.7909    0.0000 C   0  0  2  0  0  0  0  0  0  0  0  0
    6.8817   -5.2034    0.0000 C   0  0  0  0  0  0  0  0  0  0  0  0
    6.1280   -4.8678    0.0000 C   0  0  0  0  0  0  0  0  0  0  0  0
    5.5760   -5.4810    0.0000 C   0  0  0  0  0  0  0  0  0  0  0  0
    5.8938   -4.0768    0.0000 C   0  0  0  0  0  0  0  0  0  0  0  0
    5.0916   -3.8841    0.0000 C   0  0  0  0  0  0  0  0  0  0  0  0
    4.5236   -4.4825    0.0000 C   0  0  0  0  0  0  0  0  0  0  0  0
    4.7579   -5.2735    0.0000 C   0  0  0  0  0  0  0  0  0  0  0  0
    9.0251   -3.9659    0.0000 O   0  0  0  0  0  0  0  0  0  0  0  0
    9.0251   -7.2658    0.0000 O   0  0  0  0  0  0  0  0  0  0  0  0
    9.8258   -6.8488    0.0000 H   0  0  0  0  0  0  0  0  0  0  0  0
    3.7267   -4.2690    0.0000 O   0  0  0  0  0  0  0  0  0  0  0  0
    7.5884   -6.3944    0.0000 C   0  0  1  0  0  0  0  0  0  0  0  0
    3.1433   -4.8523    0.0000 C   0  0  0  0  0  0  0  0  0  0  0  0
    7.5962   -3.9659    0.0000 O   0  0  0  0  0  0  0  0  0  0  0  0
    8.3106   -4.3784    0.0000 O   0  0  0  0  0  0  0  0  0  0  0  0
    4.8395   -6.9099    0.0000 C   0  0  0  0  0  0  0  0  0  0  0  0
    4.4270   -7.6243    0.0000 C   0  0  0  0  0  0  0  0  0  0  0  0
    3.6020   -7.6243    0.0000 C   0  0  0  0  0  0  0  0  0  0  0  0
    4.6405   -8.4212    0.0000 C   0  0  0  0  0  0  0  0  0  0  0  0
    8.3069   -6.6498    0.0000 H   0  0  0  0  0  0  0  0  0  0  0  0
    6.0770   -6.1954    0.0000 N   0  0  0  0  0  0  0  0  0  0  0  0
    5.6645   -6.9099    0.0000 C   0  0  2  0  0  0  0  0  0  0  0  0
    5.8780   -7.7068    0.0000 O   0  0  0  0  0  0  0  0  0  0  0  0
    6.5925   -8.1193    0.0000 O   0  0  0  0  0  0  0  0  0  0  0  0
    7.3894   -7.9057    0.0000 C   0  0  0  0  0  0  0  0  0  0  0  0
    7.8019   -7.1913    0.0000 C   0  0  0  0  0  0  0  0  0  0  0  0
    6.8839   -6.0238    0.0000 C   0  0  0  0  0  0  0  0  0  0  0  0
    8.1038   -8.3182    0.0000 C   0  0  0  0  0  0  0  0  0  0  0  0
    7.3894   -8.7307    0.0000 C   0  0  0  0  0  0  0  0  0  0  0  0
    6.8817   -3.5534    0.0000 C   0  0  0  0  0  0  0  0  0  0  0  0
    6.8817   -2.7284    0.0000 C   0  0  0  0  0  0  0  0  0  0  0  0
    6.1673   -2.3159    0.0000 C   0  0  0  0  0  0  0  0  0  0  0  0
    6.1673   -1.4909    0.0000 C   0  0  0  0  0  0  0  0  0  0  0  0
    5.4528   -2.7284    0.0000 C   0  0  0  0  0  0  0  0  0  0  0  0
  3  1  1  0  0  0  0
  4  2  1  0  0  0  0
  5  3  1  0  0  0  0
  6  4  1  0  0  0  0
  7  1  1  0  0  0  0
  2  1  1  0  0  0  0
  8  7  1  0  0  0  0
  9  2  1  0  0  0  0
  9  8  1  0  0  0  0
 12 11  1  0  0  0  0
 13 31  1  0  0  0  0
 12 14  2  0  0  0  0
 15 14  1  0  0  0  0
 13 12  1  0  0  0  0
 16 15  2  0  0  0  0
 17 13  2  0  0  0  0
 17 16  1  0  0  0  0
  3 18  2  0  0  0  0
  4 19  2  0  0  0  0
  2 20  1  6  0  0  0
 16 21  1  0  0  0  0
 10 11  1  0  0  0  0
 10  5  1  0  0  0  0
  6  5  1  0  0  0  0
 22  6  1  0  0  0  0
 37 11  2  0  0  0  0
 21 23  1  0  0  0  0
 10 24  1  6  0  0  0
  5 25  1  6  0  0  0
 32 26  1  6  0  0  0
 26 27  2  0  0  0  0
 27 28  1  0  0  0  0
 27 29  1  0  0  0  0
 22 30  1  6  0  0  0
 32 33  1  0  0  0  0
 33 34  1  0  0  0  0
 34 35  1  0  0  0  0
 35 36  1  0  0  0  0
 36 22  1  0  0  0  0
 31 32  1  0  0  0  0
 37 31  1  0  0  0  0
 37 22  1  0  0  0  0
 35 38  1  0  0  0  0
 35 39  1  0  0  0  0
 24 40  1  0  0  0  0
 40 41  1  0  0  0  0
 41 42  2  0  0  0  0
 42 43  1  0  0  0  0
 42 44  1  0  0  0  0
M  END
> <ID>
CHEBI:72766

> <NAME>
fumitremorgin A

$$$$

Marvin  03151312272D          

 28 32  0  0  0  0            999 V2000
   -1.7089    0.7366    0.0000 C   0  0  0  0  0  0  0  0  0  0  0  0
   -2.4234    0.3241    0.0000 C   0  0  0  0  0  0  0  0  0  0  0  0
   -2.4234   -0.5009    0.0000 C   0  0  0  0  0  0  0  0  0  0  0  0
   -1.7089   -0.9134    0.0000 C   0  0  1  0  0  0  0  0  0  0  0  0
   -0.9945   -0.5009    0.0000 N   0  0  0  0  0  0  0  0  0  0  0  0
   -0.9945    0.3241    0.0000 C   0  0  2  0  0  0  0  0  0  0  0  0
   -0.2800    0.7366    0.0000 C   0  0  0  0  0  0  0  0  0  0  0  0
   -0.2800   -0.9134    0.0000 C   0  0  0  0  0  0  0  0  0  0  0  0
    0.4345   -0.5009    0.0000 C   0  0  1  0  0  0  0  0  0  0  0  0
    0.4345    0.3241    0.0000 N   0  0  0  0  0  0  0  0  0  0  0  0
    1.2191    0.5790    0.0000 C   0  0  0  0  0  0  0  0  0  0  0  0
    1.2191   -0.7558    0.0000 C   0  0  0  0  0  0  0  0  0  0  0  0
    1.7040   -0.0884    0.0000 C   0  0  0  0  0  0  0  0  0  0  0  0
   -3.2080    0.5791    0.0000 C   0  0  0  0  0  0  0  0  0  0  0  0
   -3.6929   -0.0884    0.0000 C   0  0  0  0  0  0  0  0  0  0  0  0
   -3.2080   -0.7558    0.0000 N   0  0  0  0  0  0  0  0  0  0  0  0
   -4.3641    1.4190    0.0000 C   0  0  0  0  0  0  0  0  0  0  0  0
   -4.8490    0.7515    0.0000 C   0  0  0  0  0  0  0  0  0  0  0  0
   -4.5134   -0.0021    0.0000 C   0  0  0  0  0  0  0  0  0  0  0  0
   -3.5436    1.3328    0.0000 C   0  0  0  0  0  0  0  0  0  0  0  0
   -0.2800   -1.7384    0.0000 O   0  0  0  0  0  0  0  0  0  0  0  0
   -0.2800    1.5616    0.0000 O   0  0  0  0  0  0  0  0  0  0  0  0
    0.4345   -1.3259    0.0000 H   0  0  0  0  0  0  0  0  0  0  0  0
   -0.9945    1.1491    0.0000 H   0  0  0  0  0  0  0  0  0  0  0  0
   -1.7089   -1.7384    0.0000 C   0  0  0  0  0  0  0  0  0  0  0  0
   -2.4234   -2.1509    0.0000 C   0  0  0  0  0  0  0  0  0  0  0  0
   -2.4234   -2.9759    0.0000 C   0  0  0  0  0  0  0  0  0  0  0  0
   -3.1379   -1.7384    0.0000 C   0  0  0  0  0  0  0  0  0  0  0  0
  1  2  1  0  0  0  0
  1  6  1  0  0  0  0
  3  4  1  0  0  0  0
  4  5  1  0  0  0  0
  7  6  1  0  0  0  0
  6  5  1  0  0  0  0
  5  8  1  0  0  0  0
  7 10  1  0  0  0  0
  8  9  1  0  0  0  0
  9 12  1  0  0  0  0
 10  9  1  0  0  0  0
 11 10  1  0  0  0  0
 11 13  1  0  0  0  0
 12 13  1  0  0  0  0
 14  2  1  0  0  0  0
  3  2  2  0  0  0  0
 16  3  1  0  0  0  0
 15 16  1  0  0  0  0
 15 14  2  0  0  0  0
 17 18  1  0  0  0  0
 19 15  1  0  0  0  0
 18 19  2  0  0  0  0
 17 20  2  0  0  0  0
 14 20  1  0  0  0  0
  8 21  2  0  0  0  0
  7 22  2  0  0  0  0
  9 23  1  6  0  0  0
  6 24  1  6  0  0  0
  4 25  1  1  0  0  0
 25 26  2  0  0  0  0
 26 27  1  0  0  0  0
 26 28  1  0  0  0  0
M  END
> <ID>
CHEBI:72767

> <NAME>
demethoxyfumitremorgin C

$$$$

Marvin  04121311402D          

 53 54  0  0  1  0            999 V2000
   11.9291  -10.4817    0.0000 C   0  0  0  0  0  0  0  0  0  0  0  0
   11.2175  -10.8965    0.0000 C   0  0  1  0  0  0  0  0  0  0  0  0
   12.6419  -10.8970    0.0000 O   0  0  0  0  0  0  0  0  0  0  0  0
   10.5013  -10.4871    0.0000 N   0  0  0  0  0  0  0  0  0  0  0  0
   11.2175  -11.7219    0.0000 C   0  0  1  0  0  0  0  0  0  0  0  0
    9.7867  -10.9003    0.0000 C   0  0  0  0  0  0  0  0  0  0  0  0
   10.5076  -12.1337    0.0000 C   0  0  0  0  0  0  0  0  0  0  0  0
   11.9303  -12.1372    0.0000 O   0  0  0  0  0  0  0  0  0  0  0  0
    9.0752  -10.4898    0.0000 C   0  0  2  0  0  0  0  0  0  0  0  0
    9.7866  -11.7257    0.0000 O   0  0  0  0  0  0  0  0  0  0  0  0
   10.5092  -12.9561    0.0000 C   0  0  0  0  0  0  0  0  0  0  0  0
    9.0753   -9.6643    0.0000 C   0  0  0  0  0  0  0  0  0  0  0  0
    8.3606  -10.9029    0.0000 N   0  0  0  0  0  0  0  0  0  0  0  0
    9.8006  -13.3727    0.0000 C   0  0  0  0  0  0  0  0  0  0  0  0
    8.3637   -9.2537    0.0000 C   0  0  0  0  0  0  0  0  0  0  0  0
    8.3605  -11.7283    0.0000 C   0  0  0  0  0  0  0  0  0  0  0  0
    9.7977  -14.1964    0.0000 N   0  0  0  0  0  0  0  0  0  0  0  0
    7.6490   -9.6669    0.0000 C   0  0  0  0  0  0  0  0  0  0  0  0
    8.3607   -8.4267    0.0000 C   0  0  0  0  0  0  0  0  0  0  0  0
    7.6460  -12.1414    0.0000 C   0  0  0  0  0  0  0  0  0  0  0  0
    9.0734  -12.1435    0.0000 O   0  0  0  0  0  0  0  0  0  0  0  0
    6.9376   -9.2564    0.0000 Cl  0  0  0  0  0  0  0  0  0  0  0  0
    7.6490  -10.4923    0.0000 Cl  0  0  0  0  0  0  0  0  0  0  0  0
    7.6476  -12.9638    0.0000 O   0  0  0  0  0  0  0  0  0  0  0  0
    6.9297  -11.7321    0.0000 O   0  0  0  0  0  0  0  0  0  0  0  0
   13.3579   -8.0067    0.0000 O   0  0  0  0  0  0  0  0  0  0  0  0
   12.6435   -8.4192    0.0000 C   0  0  2  0  0  0  0  0  0  0  0  0
   12.6435   -9.2442    0.0000 C   0  0  1  0  0  0  0  0  0  0  0  0
   13.3579   -9.6567    0.0000 C   0  0  0  0  0  0  0  0  0  0  0  0
   14.0724   -9.2442    0.0000 N   0  0  0  0  0  0  0  0  0  0  0  0
   14.7869   -8.0067    0.0000 C   0  0  1  0  0  0  0  0  0  0  0  0
   14.7869   -9.6567    0.0000 C   0  0  0  0  0  0  0  0  0  0  0  0
   15.5013   -9.2442    0.0000 C   0  0  0  0  0  0  0  0  0  0  0  0
   15.5013   -8.4192    0.0000 N   0  0  0  0  0  0  0  0  0  0  0  0
   14.7869   -7.1816    0.0000 C   0  0  0  0  0  0  0  0  0  0  0  0
   13.9009   -5.9622    0.0000 C   0  0  0  0  0  0  0  0  0  0  0  0
   13.0804   -5.8760    0.0000 C   0  0  0  0  0  0  0  0  0  0  0  0
   12.7449   -6.6296    0.0000 C   0  0  0  0  0  0  0  0  0  0  0  0
   13.3579   -7.1816    0.0000 C   0  0  0  0  0  0  0  0  0  0  0  0
   14.0724   -6.7691    0.0000 C   0  0  0  0  0  0  0  0  0  0  0  0
   14.4529   -5.3491    0.0000 O   0  0  0  0  0  0  0  0  0  0  0  0
   12.6679   -5.1615    0.0000 O   0  0  0  0  0  0  0  0  0  0  0  0
   13.3579  -10.4817    0.0000 O   0  0  0  0  0  0  0  0  0  0  0  0
   14.7869  -10.4817    0.0000 C   0  0  0  0  0  0  0  0  0  0  0  0
   15.5013  -10.8942    0.0000 Cl  0  0  0  0  0  0  0  0  0  0  0  0
   16.2158   -9.6567    0.0000 O   0  0  0  0  0  0  0  0  0  0  0  0
   15.5013   -7.5942    0.0000 C   0  0  0  0  0  0  0  0  0  0  0  0
   15.5013   -6.7692    0.0000 O   0  0  0  0  0  0  0  0  0  0  0  0
   16.2158   -8.0067    0.0000 O   0  0  0  0  0  0  0  0  0  0  0  0
   11.9290   -8.0067    0.0000 C   0  0  0  0  0  0  0  0  0  0  0  0
   11.2145   -8.4192    0.0000 C   0  0  0  0  0  0  0  0  0  0  0  0
   11.9290   -7.1817    0.0000 C   0  0  0  0  0  0  0  0  0  0  0  0
   11.9290   -9.6567    0.0000 N   0  0  0  0  0  0  0  0  0  0  0  0
  1  2  1  0  0  0  0
  1  3  2  0  0  0  0
  2  4  1  6  0  0  0
  2  5  1  0  0  0  0
  4  6  1  0  0  0  0
  5  7  1  0  0  0  0
  5  8  1  6  0  0  0
  6  9  1  0  0  0  0
  6 10  2  0  0  0  0
  7 11  1  0  0  0  0
  9 12  1  0  0  0  0
  9 13  1  1  0  0  0
 11 14  1  0  0  0  0
 12 15  1  0  0  0  0
 13 16  1  0  0  0  0
 14 17  1  0  0  0  0
 15 18  1  0  0  0  0
 15 19  1  0  0  0  0
 16 20  1  0  0  0  0
 16 21  2  0  0  0  0
 18 22  1  0  0  0  0
 18 23  1  0  0  0  0
 20 24  1  0  0  0  0
 20 25  1  0  0  0  0
 26 27  1  0  0  0  0
 27 28  1  0  0  0  0
 28 29  1  0  0  0  0
 29 30  1  0  0  0  0
 30 32  1  0  0  0  0
 32 33  1  0  0  0  0
 33 34  1  0  0  0  0
 31 34  1  0  0  0  0
 31 35  1  0  0  0  0
 39 26  1  0  0  0  0
 40 35  1  0  0  0  0
 36 37  1  0  0  0  0
 37 38  1  0  0  0  0
 38 39  1  0  0  0  0
 36 40  1  0  0  0  0
 39 40  2  0  0  0  0
 36 41  2  0  0  0  0
 37 42  1  0  0  0  0
 29 43  2  0  0  0  0
 32 44  2  0  0  0  0
 44 45  1  0  0  0  0
 33 46  2  0  0  0  0
 31 47  1  6  0  0  0
 47 48  2  0  0  0  0
 47 49  1  0  0  0  0
 27 50  1  6  0  0  0
 50 51  1  0  0  0  0
 50 52  1  0  0  0  0
 28 53  1  1  0  0  0
  1 53  1  0  0  0  0
M  END
> <ID>
CHEBI:73154

> <NAME>
victorin C

$$$$

Marvin  07251313392D          

 11 12  0  0  0  0            999 V2000
    5.6125  -16.1016    0.0000 C   0  0  0  0  0  0  0  0  0  0  0  0
    5.6125  -16.9266    0.0000 C   0  0  0  0  0  0  0  0  0  0  0  0
    6.4006  -17.1729    0.0000 O   0  0  0  0  0  0  0  0  0  0  0  0
    6.4006  -15.8431    0.0000 C   0  0  0  0  0  0  0  0  0  0  0  0
    6.8685  -16.5080    0.0000 C   0  0  0  0  0  0  0  0  0  0  0  0
    4.9107  -15.6953    0.0000 C   0  0  0  0  0  0  0  0  0  0  0  0
    4.9107  -17.3330    0.0000 C   0  0  0  0  0  0  0  0  0  0  0  0
    4.1842  -16.1016    0.0000 O   0  0  0  0  0  0  0  0  0  0  0  0
    7.6935  -16.5080    0.0000 O   0  0  0  0  0  0  0  0  0  0  0  0
    4.1842  -16.9266    0.0000 C   0  0  0  0  0  0  0  0  0  0  0  0
    4.9107  -14.8703    0.0000 O   0  0  0  0  0  0  0  0  0  0  0  0
  2  1  1  0  0  0  0
  4  1  2  0  0  0  0
  6  1  1  0  0  0  0
  3  2  1  0  0  0  0
  7  2  2  0  0  0  0
  5  3  1  0  0  0  0
  5  4  1  0  0  0  0
  9  5  2  0  0  0  0
  8  6  1  0  0  0  0
 11  6  1  0  0  0  0
 10  7  1  0  0  0  0
 10  8  1  0  0  0  0
M  END
> <ID>
CHEBI:74926

> <NAME>
patulin

$$$$

Mrv0541 05091414212D          

104103  0  0  0  0            999 V2000
    5.8156   -1.7933    0.0000 N   0  0  0  0  0  0  0  0  0  0  0  0
    6.5301   -2.2058    0.0000 C   0  0  2  0  0  0  0  0  0  0  0  0
    7.2445   -1.7933    0.0000 C   0  0  0  0  0  0  0  0  0  0  0  0
    7.9590   -2.2058    0.0000 N   0  0  0  0  0  0  0  0  0  0  0  0
    8.6735   -1.7933    0.0000 C   0  0  2  0  0  0  0  0  0  0  0  0
    9.3879   -2.2058    0.0000 C   0  0  0  0  0  0  0  0  0  0  0  0
   10.1024   -1.7933    0.0000 N   0  0  0  0  0  0  0  0  0  0  0  0
   10.8169   -2.2058    0.0000 C   0  0  2  0  0  0  0  0  0  0  0  0
   11.5314   -1.7933    0.0000 C   0  0  0  0  0  0  0  0  0  0  0  0
   12.2458   -2.2058    0.0000 N   0  0  0  0  0  0  0  0  0  0  0  0
   12.9603   -1.7933    0.0000 C   0  0  2  0  0  0  0  0  0  0  0  0
   13.6748   -2.2058    0.0000 C   0  0  0  0  0  0  0  0  0  0  0  0
   14.3892   -1.7933    0.0000 N   0  0  0  0  0  0  0  0  0  0  0  0
   15.1037   -2.2058    0.0000 C   0  0  2  0  0  0  0  0  0  0  0  0
   15.8182   -1.7933    0.0000 C   0  0  0  0  0  0  0  0  0  0  0  0
   16.5326   -2.2058    0.0000 N   0  0  0  0  0  0  0  0  0  0  0  0
   17.2471   -1.7933    0.0000 C   0  0  2  0  0  0  0  0  0  0  0  0
   17.9616   -2.2058    0.0000 C   0  0  0  0  0  0  0  0  0  0  0  0
   18.6761   -1.7933    0.0000 N   0  0  0  0  0  0  0  0  0  0  0  0
   19.3905   -2.2058    0.0000 C   0  0  2  0  0  0  0  0  0  0  0  0
   20.1050   -1.7933    0.0000 C   0  0  0  0  0  0  0  0  0  0  0  0
   20.8195   -2.2058    0.0000 N   0  0  0  0  0  0  0  0  0  0  0  0
   21.5339   -1.7933    0.0000 C   0  0  2  0  0  0  0  0  0  0  0  0
   22.2484   -2.2058    0.0000 C   0  0  0  0  0  0  0  0  0  0  0  0
   22.9629   -1.7933    0.0000 N   0  0  0  0  0  0  0  0  0  0  0  0
   23.6774   -2.2058    0.0000 C   0  0  2  0  0  0  0  0  0  0  0  0
   24.3918   -1.7933    0.0000 C   0  0  0  0  0  0  0  0  0  0  0  0
   25.1063   -2.2058    0.0000 N   0  0  0  0  0  0  0  0  0  0  0  0
   24.3930   -0.9683    0.0000 O   0  0  0  0  0  0  0  0  0  0  0  0
   22.2460   -3.0358    0.0000 O   0  0  0  0  0  0  0  0  0  0  0  0
   20.1090   -0.9683    0.0000 O   0  0  0  0  0  0  0  0  0  0  0  0
   17.9620   -3.0358    0.0000 O   0  0  0  0  0  0  0  0  0  0  0  0
   15.8150   -0.9683    0.0000 O   0  0  0  0  0  0  0  0  0  0  0  0
   13.6779   -3.0358    0.0000 O   0  0  0  0  0  0  0  0  0  0  0  0
   11.5309   -0.9683    0.0000 O   0  0  0  0  0  0  0  0  0  0  0  0
    9.3840   -3.0358    0.0000 O   0  0  0  0  0  0  0  0  0  0  0  0
    7.2469   -0.9683    0.0000 O   0  0  0  0  0  0  0  0  0  0  0  0
   -4.9015   -2.2058    0.0000 N   0  0  0  0  0  0  0  0  0  0  0  0
   -4.1870   -1.7933    0.0000 C   0  0  2  0  0  0  0  0  0  0  0  0
   -3.4725   -2.2058    0.0000 C   0  0  0  0  0  0  0  0  0  0  0  0
   -2.7581   -1.7933    0.0000 N   0  0  0  0  0  0  0  0  0  0  0  0
   -2.0436   -2.2058    0.0000 C   0  0  2  0  0  0  0  0  0  0  0  0
   -1.3291   -1.7933    0.0000 C   0  0  0  0  0  0  0  0  0  0  0  0
   -0.6147   -2.2058    0.0000 N   0  0  0  0  0  0  0  0  0  0  0  0
    0.0998   -1.7933    0.0000 C   0  0  2  0  0  0  0  0  0  0  0  0
    0.8143   -2.2058    0.0000 C   0  0  0  0  0  0  0  0  0  0  0  0
    1.5288   -1.7933    0.0000 N   0  0  0  0  0  0  0  0  0  0  0  0
    2.2432   -2.2058    0.0000 C   0  0  2  0  0  0  0  0  0  0  0  0
    2.9577   -1.7933    0.0000 C   0  0  0  0  0  0  0  0  0  0  0  0
    3.6722   -2.2058    0.0000 N   0  0  0  0  0  0  0  0  0  0  0  0
    4.3866   -1.7933    0.0000 C   0  0  2  0  0  0  0  0  0  0  0  0
    5.1011   -2.2058    0.0000 C   0  0  0  0  0  0  0  0  0  0  0  0
    5.0979   -3.0308    0.0000 O   0  0  0  0  0  0  0  0  0  0  0  0
    2.9609   -0.9633    0.0000 O   0  0  0  0  0  0  0  0  0  0  0  0
    0.8139   -3.0308    0.0000 O   0  0  0  0  0  0  0  0  0  0  0  0
   -1.3331   -0.9633    0.0000 O   0  0  0  0  0  0  0  0  0  0  0  0
   -3.4702   -3.0308    0.0000 O   0  0  0  0  0  0  0  0  0  0  0  0
   -4.1838   -0.9683    0.0000 C   0  0  1  0  0  0  0  0  0  0  0  0
   -3.4677   -0.5586    0.0000 C   0  0  0  0  0  0  0  0  0  0  0  0
   -4.8967   -0.5530    0.0000 C   0  0  0  0  0  0  0  0  0  0  0  0
   -4.8995    0.2742    0.0000 C   0  0  0  0  0  0  0  0  0  0  0  0
   -2.0468   -3.0358    0.0000 C   0  0  0  0  0  0  0  0  0  0  0  0
   -1.3311   -3.4433    0.0000 C   0  0  0  0  0  0  0  0  0  0  0  0
   -1.3311   -4.2683    0.0000 N   0  0  0  0  0  0  0  0  0  0  0  0
   -0.6179   -3.0287    0.0000 O   0  0  0  0  0  0  0  0  0  0  0  0
    0.0998   -0.9683    0.0000 C   0  0  0  0  0  0  0  0  0  0  0  0
    0.8143   -0.5558    0.0000 C   0  0  0  0  0  0  0  0  0  0  0  0
    0.8143    0.2692    0.0000 C   0  0  0  0  0  0  0  0  0  0  0  0
    1.5288   -0.9683    0.0000 C   0  0  0  0  0  0  0  0  0  0  0  0
    2.2472   -3.0358    0.0000 C   0  0  0  0  0  0  0  0  0  0  0  0
    2.9637   -3.4448    0.0000 C   0  0  0  0  0  0  0  0  0  0  0  0
    2.9676   -4.2698    0.0000 C   0  0  0  0  0  0  0  0  0  0  0  0
    3.6840   -4.6789    0.0000 C   0  0  0  0  0  0  0  0  0  0  0  0
    4.3866   -0.9683    0.0000 C   0  0  0  0  0  0  0  0  0  0  0  0
    6.5340   -3.0358    0.0000 C   0  0  0  0  0  0  0  0  0  0  0  0
    7.2505   -3.4448    0.0000 C   0  0  0  0  0  0  0  0  0  0  0  0
    8.6735   -0.9683    0.0000 C   0  0  0  0  0  0  0  0  0  0  0  0
   10.8169   -3.0308    0.0000 C   0  0  0  0  0  0  0  0  0  0  0  0
    7.2544   -4.2698    0.0000 C   0  0  0  0  0  0  0  0  0  0  0  0
    7.9630   -3.0289    0.0000 C   0  0  0  0  0  0  0  0  0  0  0  0
   12.9623   -0.9683    0.0000 C   0  0  0  0  0  0  0  0  0  0  0  0
   13.6777   -0.5575    0.0000 C   0  0  0  0  0  0  0  0  0  0  0  0
   13.6797    0.2675    0.0000 C   0  0  0  0  0  0  0  0  0  0  0  0
   14.3912   -0.9717    0.0000 C   0  0  0  0  0  0  0  0  0  0  0  0
   15.0993   -3.0358    0.0000 C   0  0  0  0  0  0  0  0  0  0  0  0
   17.2511   -0.9633    0.0000 C   0  0  0  0  0  0  0  0  0  0  0  0
   17.9675   -0.5543    0.0000 C   0  0  0  0  0  0  0  0  0  0  0  0
   17.9715    0.2707    0.0000 C   0  0  0  0  0  0  0  0  0  0  0  0
   18.6879    0.6798    0.0000 C   0  0  0  0  0  0  0  0  0  0  0  0
   19.3945   -3.0358    0.0000 C   0  0  0  0  0  0  0  0  0  0  0  0
   20.1110   -3.4448    0.0000 C   0  0  0  0  0  0  0  0  0  0  0  0
   20.1149   -4.2698    0.0000 C   0  0  0  0  0  0  0  0  0  0  0  0
   20.8313   -4.6789    0.0000 C   0  0  0  0  0  0  0  0  0  0  0  0
   21.5371   -0.9683    0.0000 C   0  0  1  0  0  0  0  0  0  0  0  0
   22.2532   -0.5586    0.0000 C   0  0  0  0  0  0  0  0  0  0  0  0
   20.8243   -0.5530    0.0000 C   0  0  0  0  0  0  0  0  0  0  0  0
   20.8215    0.2742    0.0000 C   0  0  0  0  0  0  0  0  0  0  0  0
   23.6773   -3.0358    0.0000 C   0  0  0  0  0  0  0  0  0  0  0  0
   24.3918   -3.4483    0.0000 C   0  0  0  0  0  0  0  0  0  0  0  0
   24.3918   -4.2733    0.0000 C   0  0  0  0  0  0  0  0  0  0  0  0
   25.1063   -3.0358    0.0000 C   0  0  0  0  0  0  0  0  0  0  0  0
    3.6885   -5.5008    0.0000 N   0  0  0  0  0  0  0  0  0  0  0  0
   18.6876    1.5067    0.0000 N   0  0  0  0  0  0  0  0  0  0  0  0
   20.8346   -5.5008    0.0000 N   0  0  0  0  0  0  0  0  0  0  0  0
  2  1  1  6  0  0  0
  3  2  1  0  0  0  0
  4  3  1  0  0  0  0
  5  4  1  1  0  0  0
  6  5  1  0  0  0  0
  7  6  1  0  0  0  0
  8  7  1  6  0  0  0
  9  8  1  0  0  0  0
 10  9  1  0  0  0  0
 11 10  1  1  0  0  0
 12 11  1  0  0  0  0
 13 12  1  0  0  0  0
 14 13  1  6  0  0  0
 15 14  1  0  0  0  0
 16 15  1  0  0  0  0
 17 16  1  1  0  0  0
 18 17  1  0  0  0  0
 19 18  1  0  0  0  0
 20 19  1  6  0  0  0
 21 20  1  0  0  0  0
 22 21  1  0  0  0  0
 23 22  1  1  0  0  0
 24 23  1  0  0  0  0
 25 24  1  0  0  0  0
 26 25  1  6  0  0  0
 27 26  1  0  0  0  0
 28 27  1  0  0  0  0
 27 29  2  0  0  0  0
 24 30  2  0  0  0  0
 21 31  2  0  0  0  0
 18 32  2  0  0  0  0
 15 33  2  0  0  0  0
 12 34  2  0  0  0  0
  9 35  2  0  0  0  0
  6 36  2  0  0  0  0
  3 37  2  0  0  0  0
 39 38  1  1  0  0  0
 40 39  1  0  0  0  0
 41 40  1  0  0  0  0
 42 41  1  6  0  0  0
 43 42  1  0  0  0  0
 44 43  1  0  0  0  0
 45 44  1  1  0  0  0
 46 45  1  0  0  0  0
 47 46  1  0  0  0  0
 48 47  1  6  0  0  0
 49 48  1  0  0  0  0
 50 49  1  0  0  0  0
 51 50  1  1  0  0  0
 52 51  1  0  0  0  0
  1 52  1  0  0  0  0
 52 53  2  0  0  0  0
 49 54  2  0  0  0  0
 46 55  2  0  0  0  0
 43 56  2  0  0  0  0
 40 57  2  0  0  0  0
 39 58  1  0  0  0  0
 58 59  1  6  0  0  0
 58 60  1  0  0  0  0
 60 61  1  0  0  0  0
 42 62  1  0  0  0  0
 62 63  1  0  0  0  0
 63 64  1  0  0  0  0
 63 65  2  0  0  0  0
 45 66  1  0  0  0  0
 66 67  1  0  0  0  0
 67 68  1  0  0  0  0
 67 69  1  0  0  0  0
 48 70  1  0  0  0  0
 70 71  1  0  0  0  0
 71 72  1  0  0  0  0
 72 73  1  0  0  0  0
 51 74  1  0  0  0  0
  2 75  1  0  0  0  0
 75 76  1  0  0  0  0
  5 77  1  0  0  0  0
  8 78  1  0  0  0  0
 76 79  1  0  0  0  0
 76 80  1  0  0  0  0
 11 81  1  0  0  0  0
 81 82  1  0  0  0  0
 82 83  1  0  0  0  0
 82 84  1  0  0  0  0
 14 85  1  0  0  0  0
 17 86  1  0  0  0  0
 86 87  1  0  0  0  0
 87 88  1  0  0  0  0
 88 89  1  0  0  0  0
 20 90  1  0  0  0  0
 90 91  1  0  0  0  0
 91 92  1  0  0  0  0
 92 93  1  0  0  0  0
 23 94  1  0  0  0  0
 94 95  1  6  0  0  0
 94 96  1  0  0  0  0
 96 97  1  0  0  0  0
 26 98  1  0  0  0  0
 98 99  1  0  0  0  0
 99100  1  0  0  0  0
 99101  1  0  0  0  0
 73102  1  0  0  0  0
 89103  1  0  0  0  0
 93104  1  0  0  0  0
M  END
> <ID>
CHEBI:78496

> <NAME>
mastoparan

$$$$

  Ketcher 04041717022D 1   1.00000     0.00000     0

  0  0  0     0  0            999 V2000
M  END> <ID>
CHEBI:78506

> <NAME>
mastoparans

$$$$

Mrv0541 08051411372D          

 26 31  0  0  0  0            999 V2000
    1.1438   -0.6919    0.0000 C   0  0  0  0  0  0  0  0  0  0  0  0
    1.8451   -0.2795    0.0000 C   0  0  0  0  0  0  0  0  0  0  0  0
    0.3600   -0.4032    0.0000 C   0  0  1  0  0  0  0  0  0  0  0  0
    1.1438   -1.5169    0.0000 C   0  0  0  0  0  0  0  0  0  0  0  0
    2.5463   -0.6919    0.0000 C   0  0  0  0  0  0  0  0  0  0  0  0
    1.8451    0.5457    0.0000 O   0  0  0  0  0  0  0  0  0  0  0  0
   -0.1350   -1.1045    0.0000 C   0  0  1  0  0  0  0  0  0  0  0  0
   -0.1350    0.2569    0.0000 C   0  0  2  0  0  0  0  0  0  0  0  0
    1.8451   -1.9295    0.0000 C   0  0  0  0  0  0  0  0  0  0  0  0
    0.3188   -1.7645    0.0000 O   0  0  0  0  0  0  0  0  0  0  0  0
    3.2477   -0.2795    0.0000 C   0  0  0  0  0  0  0  0  0  0  0  0
    2.5463   -1.5169    0.0000 C   0  0  0  0  0  0  0  0  0  0  0  0
    2.5463    0.9582    0.0000 C   0  0  0  0  0  0  0  0  0  0  0  0
   -0.9188   -0.8157    0.0000 O   0  0  0  0  0  0  0  0  0  0  0  0
   -0.9188    0.0094    0.0000 C   0  0  2  0  0  0  0  0  0  0  0  0
    3.2477    0.5457    0.0000 C   0  0  0  0  0  0  0  0  0  0  0  0
    3.2477   -1.9295    0.0000 O   0  0  0  0  0  0  0  0  0  0  0  0
    2.5463    1.7832    0.0000 O   0  0  0  0  0  0  0  0  0  0  0  0
    3.9902   -1.5169    0.0000 C   0  0  0  0  0  0  0  0  0  0  0  0
    0.8550    0.2569    0.0000 O   0  0  0  0  0  0  0  0  0  0  0  0
   -0.7126   -1.6820    0.0000 H   0  0  0  0  0  0  0  0  0  0  0  0
    4.0323   -0.5344    0.0000 C   0  0  0  0  0  0  0  0  0  0  0  0
    4.5173    0.1332    0.0000 C   0  0  0  0  0  0  0  0  0  0  0  0
    4.0323    0.8006    0.0000 C   0  0  0  0  0  0  0  0  0  0  0  0
    4.2850    1.5782    0.0000 O   0  0  0  0  0  0  0  0  0  0  0  0
   -0.7435    0.8139    0.0000 O   0  0  0  0  0  0  0  0  0  0  0  0
  1  2  2  0  0  0  0
  1  3  1  0  0  0  0
  1  4  1  0  0  0  0
  2  5  1  0  0  0  0
  2  6  1  0  0  0  0
  3  7  1  0  0  0  0
  3  8  1  0  0  0  0
  4  9  2  0  0  0  0
  4 10  1  0  0  0  0
  5 11  1  0  0  0  0
  5 12  2  0  0  0  0
  6 13  1  0  0  0  0
  7 14  1  0  0  0  0
 11 16  2  0  0  0  0
 12 17  1  0  0  0  0
 13 18  2  0  0  0  0
 17 19  1  0  0  0  0
  7 10  1  0  0  0  0
  9 12  1  0  0  0  0
 13 16  1  0  0  0  0
 14 15  1  0  0  0  0
  3 20  1  6  0  0  0
  7 21  1  6  0  0  0
 11 22  1  0  0  0  0
 22 23  1  0  0  0  0
 23 24  1  0  0  0  0
 16 24  1  0  0  0  0
 24 25  2  0  0  0  0
  8 26  1  6  0  0  0
  8 15  1  0  0  0  0
 15 26  1  6  0  0  0
M  END
> <ID>
CHEBI:78577

> <NAME>
aflatoxin M1 8,9-epoxide

$$$$

Mrv0541 08111414142D          

 26 31  0  0  1  0            999 V2000
    9.5286   -6.3312    0.0000 C   0  0  0  0  0  0  0  0  0  0  0  0
   10.2431   -5.9187    0.0000 C   0  0  0  0  0  0  0  0  0  0  0  0
    8.7439   -6.0762    0.0000 C   0  0  1  0  0  0  0  0  0  0  0  0
    9.5286   -7.1562    0.0000 C   0  0  0  0  0  0  0  0  0  0  0  0
   10.9576   -6.3312    0.0000 C   0  0  0  0  0  0  0  0  0  0  0  0
   10.2431   -5.0937    0.0000 O   0  0  0  0  0  0  0  0  0  0  0  0
    8.2591   -6.7437    0.0000 C   0  0  1  0  0  0  0  0  0  0  0  0
    8.2591   -5.4088    0.0000 C   0  0  1  0  0  0  0  0  0  0  0  0
   10.2431   -7.5687    0.0000 C   0  0  0  0  0  0  0  0  0  0  0  0
    8.7439   -7.4110    0.0000 O   0  0  0  0  0  0  0  0  0  0  0  0
   11.6720   -5.9187    0.0000 C   0  0  0  0  0  0  0  0  0  0  0  0
   10.9576   -7.1562    0.0000 C   0  0  0  0  0  0  0  0  0  0  0  0
   10.9576   -4.6812    0.0000 C   0  0  0  0  0  0  0  0  0  0  0  0
    7.4744   -6.4887    0.0000 O   0  0  0  0  0  0  0  0  0  0  0  0
    7.4744   -5.6637    0.0000 C   0  0  1  0  0  0  0  0  0  0  0  0
   11.6720   -5.0937    0.0000 C   0  0  0  0  0  0  0  0  0  0  0  0
   12.4566   -6.1735    0.0000 C   0  0  0  0  0  0  0  0  0  0  0  0
   11.6720   -7.5687    0.0000 O   0  0  0  0  0  0  0  0  0  0  0  0
   10.9576   -3.8562    0.0000 O   0  0  0  0  0  0  0  0  0  0  0  0
   12.4566   -4.8387    0.0000 C   0  0  0  0  0  0  0  0  0  0  0  0
   12.9416   -5.5062    0.0000 C   0  0  0  0  0  0  0  0  0  0  0  0
   12.3865   -7.1562    0.0000 C   0  0  0  0  0  0  0  0  0  0  0  0
   12.7116   -4.0541    0.0000 O   0  0  0  0  0  0  0  0  0  0  0  0
    9.2288   -5.4088    0.0000 H   0  0  0  0  0  0  0  0  0  0  0  0
    7.7742   -7.4110    0.0000 H   0  0  0  0  0  0  0  0  0  0  0  0
    7.6757   -4.8254    0.0000 O   0  0  0  0  0  0  0  0  0  0  0  0
  1  2  2  0  0  0  0
  1  3  1  0  0  0  0
  1  4  1  0  0  0  0
  2  5  1  0  0  0  0
  2  6  1  0  0  0  0
  3  7  1  0  0  0  0
  3  8  1  0  0  0  0
  4  9  2  0  0  0  0
  4 10  1  0  0  0  0
  5 11  1  0  0  0  0
  5 12  2  0  0  0  0
  6 13  1  0  0  0  0
  7 14  1  0  0  0  0
  8 15  1  0  0  0  0
 11 16  2  0  0  0  0
 11 17  1  0  0  0  0
 12 18  1  0  0  0  0
 13 19  2  0  0  0  0
 16 20  1  0  0  0  0
 17 21  1  0  0  0  0
 18 22  1  0  0  0  0
 20 23  2  0  0  0  0
  7 10  1  0  0  0  0
  9 12  1  0  0  0  0
 13 16  1  0  0  0  0
 14 15  1  0  0  0  0
 20 21  1  0  0  0  0
  3 24  1  6  0  0  0
  7 25  1  6  0  0  0
  8 26  1  1  0  0  0
 15 26  1  1  0  0  0
M  END
> <ID>
CHEBI:78586

> <NAME>
aflatoxin B1 endo-8,9-oxide

$$$$

Ketcher 08202011512D 1   1.00000     0.00000     0

  9  9  0     0  0            999 V2000
   11.4290   -6.8185    0.0000 C   0  0  0  0  0  0  0  0  0  0  0  0
   12.3343   -6.3985    0.0000 C   0  0  0  0  0  0  0  0  0  0  0  0
   13.2330   -6.8403    0.0000 C   0  0  0  0  0  0  0  0  0  0  0  0
   13.4450   -7.8113    0.0000 C   0  0  0  0  0  0  0  0  0  0  0  0
   11.1968   -7.7987    0.0000 C   0  0  0  0  0  0  0  0  0  0  0  0
   12.8179   -8.5938    0.0000 C   0  0  0  0  0  0  0  0  0  0  0  0
   11.8161   -8.5854    0.0000 C   0  0  0  0  0  0  0  0  0  0  0  0
   12.3456   -5.4003    0.0000 O   0  0  0  0  0  0  0  0  0  0  0  0
   14.0166   -6.2266    0.0000 O   0  0  0  0  0  0  0  0  0  0  0  0
  3  4  2  0     0  0
  1  5  2  0     0  0
  4  6  1  0     0  0
  2  3  1  0     0  0
  5  7  1  0     0  0
  1  2  1  0     0  0
  6  7  2  0     0  0
  2  8  2  0     0  0
  3  9  1  0     0  0
M  END
> <ID>
CHEBI:79966

> <NAME>
tropolone

$$$$

Ketcher 09301514322D 1   1.00000     0.00000     0

 46 49  0     1  0            999 V2000
   17.2724   -5.6325    0.0000 C   0  0  0  0  0  0  0  0  0  0  0  0
   16.4803   -6.0780    0.0000 O   0  0  0  0  0  0  0  0  0  0  0  0
   18.1636   -6.0780    0.0000 C   0  0  0  0  0  0  0  0  0  0  0  0
   18.9062   -5.6325    0.0000 O   0  0  0  0  0  0  0  0  0  0  0  0
   17.2724   -4.6423    0.0000 C   0  0  0  0  0  0  0  0  0  0  0  0
   15.6388   -5.6325    0.0000 C   0  0  0  0  0  0  0  0  0  0  0  0
   18.1636   -7.0681    0.0000 C   0  0  0  0  0  0  0  0  0  0  0  0
   19.7973   -7.0681    0.0000 C   0  0  0  0  0  0  0  0  0  0  0  0
   16.4803   -4.1473    0.0000 C   0  0  0  0  0  0  0  0  0  0  0  0
   17.9160   -3.8503    0.0000 C   0  0  0  0  0  0  0  0  0  0  0  0
   18.2625   -4.6423    0.0000 C   0  0  0  0  0  0  0  0  0  0  0  0
   15.6388   -4.6423    0.0000 C   0  0  0  0  0  0  0  0  0  0  0  0
   14.7971   -6.0780    0.0000 C   0  0  0  0  0  0  0  0  0  0  0  0
   15.6388   -6.7220    0.0000 O   0  0  0  0  0  0  0  0  0  0  0  0
   18.9556   -7.5137    0.0000 C   0  0  0  0  0  0  0  0  0  0  0  0
   17.3219   -7.5633    0.0000 O   0  0  0  0  0  0  0  0  0  0  0  0
   20.6390   -7.5137    0.0000 C   0  0  0  0  0  0  0  0  0  0  0  0
   14.7971   -4.1473    0.0000 C   0  0  0  0  0  0  0  0  0  0  0  0
   14.7971   -7.0681    0.0000 C   0  0  0  0  0  0  0  0  0  0  0  0
   19.0052   -8.5038    0.0000 C   0  0  0  0  0  0  0  0  0  0  0  0
   17.3221   -8.5038    0.0000 C   0  0  0  0  0  0  0  0  0  0  0  0
   21.4310   -7.0186    0.0000 C   0  0  0  0  0  0  0  0  0  0  0  0
   20.6390   -8.4544    0.0000 C   0  0  0  0  0  0  0  0  0  0  0  0
   15.5892   -7.5137    0.0000 O   0  0  0  0  0  0  0  0  0  0  0  0
   13.9554   -7.5137    0.0000 O   0  0  0  0  0  0  0  0  0  0  0  0
   16.4309   -8.9990    0.0000 C   0  0  0  0  0  0  0  0  0  0  0  0
   18.1140   -8.9990    0.0000 O   0  0  0  0  0  0  0  0  0  0  0  0
   22.2727   -7.5137    0.0000 C   0  0  0  0  0  0  0  0  0  0  0  0
   15.5892   -8.5038    0.0000 C   0  0  0  0  0  0  0  0  0  0  0  0
   23.1143   -7.0186    0.0000 C   0  0  0  0  0  0  0  0  0  0  0  0
   14.7971   -8.9990    0.0000 C   0  0  0  0  0  0  0  0  0  0  0  0
   13.9554   -8.5038    0.0000 C   0  0  0  0  0  0  0  0  0  0  0  0
   14.7971   -9.9396    0.0000 O   0  0  0  0  0  0  0  0  0  0  0  0
   14.6964   -8.0092    0.0000 H   0  0  0  0  0  0  0  0  0  0  0  0
   20.4793   -6.3378    0.0000 H   0  0  0  0  0  0  0  0  0  0  0  0
   23.9638   -7.4999    0.0000 C   0  0  0  0  0  0  0  0  0  0  0  0
   24.8055   -7.0049    0.0000 C   0  0  0  0  0  0  0  0  0  0  0  0
   23.9718   -8.4765    0.0000 C   0  0  0  0  0  0  0  0  0  0  0  0
   25.6551   -7.4863    0.0000 C   0  0  0  0  0  0  0  0  0  0  0  0
   24.8213   -8.9578    0.0000 C   0  0  0  0  0  0  0  0  0  0  0  0
   25.6630   -8.4627    0.0000 C   0  0  0  0  0  0  0  0  0  0  0  0
   23.1063   -6.0422    0.0000 O   0  0  0  0  0  0  0  0  0  0  0  0
   22.2568   -5.5608    0.0000 C   0  0  0  0  0  0  0  0  0  0  0  0
   24.8293   -9.9342    0.0000 O   0  0  0  0  0  0  0  0  0  0  0  0
   24.7976   -6.0285    0.0000 Br  0  0  0  0  0  0  0  0  0  0  0  0
   26.5126   -8.9441    0.0000 Br  0  0  0  0  0  0  0  0  0  0  0  0
  1  2  1  0     0  0
  1  3  1  0     0  0
  1  4  1  1     0  0
  1  5  1  0     0  0
  2  6  1  0     0  0
  3  7  1  0     0  0
  8  4  1  0     0  0
  5  9  1  0     0  0
  5 10  1  0     0  0
  5 11  1  0     0  0
  6 12  1  0     0  0
  6 13  1  0     0  0
  6 14  1  6     0  0
  7 15  1  0     0  0
  7 16  1  0     0  0
  8 17  1  0     0  0
 12 18  1  6     0  0
 13 19  1  0     0  0
 15 20  1  1     0  0
 16 21  1  0     0  0
 17 22  1  0     0  0
 17 23  1  6     0  0
 19 24  1  0     0  0
 19 25  2  0     0  0
 21 26  1  0     0  0
 21 27  2  0     0  0
 22 28  1  0     0  0
 29 24  1  0     0  0
 28 30  1  0     0  0
 29 31  1  0     0  0
 31 32  1  0     0  0
 31 33  1  6     0  0
  8 15  1  0     0  0
  9 12  1  0     0  0
 26 29  1  0     0  0
 29 34  1  1     0  0
  8 35  1  1     0  0
 37 36  1  0     0  0
 38 36  2  0     0  0
 39 37  2  0     0  0
 40 38  1  0     0  0
 41 39  1  0     0  0
 41 40  2  0     0  0
 30 36  1  0     0  0
 30 42  1  6     0  0
 42 43  1  0     0  0
 40 44  1  0     0  0
 37 45  1  0     0  0
 41 46  1  0     0  0
M  END
> <ID>
CHEBI:80717

> <NAME>
19-bromoaplysiatoxin

$$$$

Mrv0541 09091413262D          

 12 12  0  0  0  0            999 V2000
    6.4509   -6.3415    0.0000 C   0  0  0  0  0  0  0  0  0  0  0  0
    5.7364   -5.9291    0.0000 C   0  0  0  0  0  0  0  0  0  0  0  0
    7.1654   -5.9291    0.0000 C   0  0  0  0  0  0  0  0  0  0  0  0
    6.4509   -7.1665    0.0000 C   0  0  0  0  0  0  0  0  0  0  0  0
    5.7364   -5.1041    0.0000 C   0  0  0  0  0  0  0  0  0  0  0  0
    7.1654   -5.1041    0.0000 C   0  0  0  0  0  0  0  0  0  0  0  0
    6.4509   -4.6916    0.0000 C   0  0  0  0  0  0  0  0  0  0  0  0
    6.4509   -3.8666    0.0000 O   0  0  0  0  0  0  0  0  0  0  0  0
    7.1654   -3.4541    0.0000 S   0  0  0  0  0  0  0  0  0  0  0  0
    7.8797   -3.8666    0.0000 O   0  0  0  0  0  0  0  0  0  0  0  0
    7.5778   -2.7397    0.0000 O   0  0  0  0  0  0  0  0  0  0  0  0
    6.7529   -2.7397    0.0000 O   0  0  0  0  0  0  0  0  0  0  0  0
  1  2  1  0  0  0  0
  1  3  2  0  0  0  0
  1  4  1  0  0  0  0
  2  5  2  0  0  0  0
  3  6  1  0  0  0  0
  5  7  1  0  0  0  0
  7  8  1  0  0  0  0
  6  7  2  0  0  0  0
  9  8  1  0  0  0  0
  9 10  1  0  0  0  0
 11  9  2  0  0  0  0
 12  9  2  0  0  0  0
M  END
> <ID>
CHEBI:82914

> <NAME>
p-cresol sulfate

$$$$

Mrv0541 04131513142D          

 13 13  0  0  0  0            999 V2000
    2.2991   -5.1628    0.0000 C   0  0  0  0  0  0  0  0  0  0  0  0
    1.5833   -4.7526    0.0000 C   0  0  0  0  0  0  0  0  0  0  0  0
    3.0123   -4.7479    0.0000 C   0  0  0  0  0  0  0  0  0  0  0  0
    1.5807   -3.9275    0.0000 C   0  0  0  0  0  0  0  0  0  0  0  0
    3.0096   -3.9230    0.0000 C   0  0  0  0  0  0  0  0  0  0  0  0
    2.2938   -3.5128    0.0000 C   0  0  0  0  0  0  0  0  0  0  0  0
    3.7281   -5.1581    0.0000 O   0  0  0  0  0  0  0  0  0  0  0  0
    0.8649   -3.5173    0.0000 C   0  0  0  0  0  0  0  0  0  0  0  0
    4.4402   -4.7464    0.0000 S   0  0  0  0  0  0  0  0  0  0  0  0
    5.1545   -5.1588    0.0000 O   0  0  0  0  0  0  0  0  0  0  0  0
    4.8527   -4.0318    0.0000 O   0  0  0  0  0  0  0  0  0  0  0  0
    4.0277   -4.0318    0.0000 O   0  0  0  0  0  0  0  0  0  0  0  0
    0.1517   -3.9321    0.0000 C   0  0  0  0  0  0  0  0  0  0  0  0
  2  1  1  0  0  0  0
  3  1  2  0  0  0  0
  4  2  2  0  0  0  0
  5  3  1  0  0  0  0
  6  4  1  0  0  0  0
  6  5  2  0  0  0  0
  7  3  1  0  0  0  0
  8  4  1  0  0  0  0
  9  7  1  0  0  0  0
  9 10  1  0  0  0  0
 11  9  2  0  0  0  0
 12  9  2  0  0  0  0
  8 13  1  0  0  0  0
M  END
> <ID>
CHEBI:82932

> <NAME>
4-ethylphenyl sulfate

$$$$

Ketcher 03081613002D 1   1.00000     0.00000     0

 77 86  0     1  0            999 V2000
   15.2099  -13.7411    0.0000 O   0  0  0  0  0  0  0  0  0  0  0  0
   14.3457  -13.2421    0.0000 C   0  0  0  0  0  0  0  0  0  0  0  0
   13.4813  -13.7411    0.0000 C   0  0  0  0  0  0  0  0  0  0  0  0
   14.3455  -12.2439    0.0000 O   0  0  0  0  0  0  0  0  0  0  0  0
   12.6169  -13.2419    0.0000 C   0  0  0  0  0  0  0  0  0  0  0  0
   13.4813  -11.7448    0.0000 C   0  0  0  0  0  0  0  0  0  0  0  0
   12.6169  -12.2439    0.0000 C   0  0  0  0  0  0  0  0  0  0  0  0
   13.4813  -14.7390    0.0000 O   0  0  0  0  0  0  0  0  0  0  0  0
   11.7525  -13.7410    0.0000 O   0  0  0  0  0  0  0  0  0  0  0  0
   11.7526  -11.7448    0.0000 O   0  0  0  0  0  0  0  0  0  0  0  0
   13.4813  -10.7468    0.0000 C   0  0  0  0  0  0  0  0  0  0  0  0
   14.4901  -10.1653    0.0000 O   0  0  0  0  0  0  0  0  0  0  0  0
   11.7526  -10.7469    0.0000 C   0  0  0  0  0  0  0  0  0  0  0  0
   10.8882  -10.2477    0.0000 C   0  0  0  0  0  0  0  0  0  0  0  0
   12.6171  -10.2477    0.0000 O   0  0  0  0  0  0  0  0  0  0  0  0
   10.8884   -9.2496    0.0000 C   0  0  0  0  0  0  0  0  0  0  0  0
   12.6171   -9.2498    0.0000 C   0  0  0  0  0  0  0  0  0  0  0  0
   11.7527   -8.7506    0.0000 C   0  0  0  0  0  0  0  0  0  0  0  0
   10.0239  -10.7468    0.0000 O   0  0  0  0  0  0  0  0  0  0  0  0
   10.0241   -8.7505    0.0000 O   0  0  0  0  0  0  0  0  0  0  0  0
   11.7527   -7.7525    0.0000 O   0  0  0  0  0  0  0  0  0  0  0  0
   13.4816   -8.7508    0.0000 C   0  0  0  0  0  0  0  0  0  0  0  0
   13.4816   -7.7527    0.0000 O   0  0  0  0  0  0  0  0  0  0  0  0
   10.0241   -7.7523    0.0000 C   0  0  0  0  0  0  0  0  0  0  0  0
    9.1598   -7.2534    0.0000 C   0  0  0  0  0  0  0  0  0  0  0  0
   10.8884   -7.2533    0.0000 O   0  0  0  0  0  0  0  0  0  0  0  0
    9.1598   -6.2554    0.0000 C   0  0  0  0  0  0  0  0  0  0  0  0
   10.8886   -6.2554    0.0000 C   0  0  0  0  0  0  0  0  0  0  0  0
   10.0242   -5.7563    0.0000 C   0  0  0  0  0  0  0  0  0  0  0  0
    8.2954   -7.7523    0.0000 O   0  0  0  0  0  0  0  0  0  0  0  0
    8.2956   -5.7562    0.0000 O   0  0  0  0  0  0  0  0  0  0  0  0
   10.0243   -4.7583    0.0000 O   0  0  0  0  0  0  0  0  0  0  0  0
    9.1595  -11.2458    0.0000 C   0  0  0  0  0  0  0  0  0  0  0  0
    9.1595  -12.2439    0.0000 C   0  0  0  0  0  0  0  0  0  0  0  0
    8.2952  -10.7468    0.0000 O   0  0  0  0  0  0  0  0  0  0  0  0
    8.2950  -12.7428    0.0000 C   0  0  0  0  0  0  0  0  0  0  0  0
    7.4308  -11.2457    0.0000 C   0  0  0  0  0  0  0  0  0  0  0  0
    7.4308  -12.2438    0.0000 C   0  0  0  0  0  0  0  0  0  0  0  0
   10.0238  -12.7429    0.0000 O   0  0  0  0  0  0  0  0  0  0  0  0
    8.2950  -13.7409    0.0000 O   0  0  0  0  0  0  0  0  0  0  0  0
    6.5664  -12.7428    0.0000 O   0  0  0  0  0  0  0  0  0  0  0  0
    6.5664  -10.7467    0.0000 C   0  0  0  0  0  0  0  0  0  0  0  0
    5.7021  -11.2457    0.0000 O   0  0  0  0  0  0  0  0  0  0  0  0
   19.5317  -10.2479    0.0000 C   0  0  0  0  0  0  0  0  0  0  0  0
   18.6674  -10.7469    0.0000 C   0  0  0  0  0  0  0  0  0  0  0  0
   19.5317  -13.2421    0.0000 C   0  0  0  0  0  0  0  0  0  0  0  0
   18.6674  -13.7411    0.0000 C   0  0  0  0  0  0  0  0  0  0  0  0
   16.9386  -13.7411    0.0000 C   0  0  0  0  0  0  0  0  0  0  0  0
   16.0744  -12.2440    0.0000 C   0  0  0  0  0  0  0  0  0  0  0  0
   16.9386  -11.7450    0.0000 C   0  0  0  0  0  0  0  0  0  0  0  0
   21.3452  -12.0535    0.0000 C   0  0  0  0  0  0  0  0  0  0  0  0
   19.5317  -12.2440    0.0000 C   0  0  0  0  0  0  0  0  0  0  0  0
   19.5317  -11.2459    0.0000 H   0  0  0  0  0  0  0  0  0  0  0  0
   18.6674  -11.7450    0.0000 C   0  0  0  0  0  0  0  0  0  0  0  0
   18.6674  -12.7431    0.0000 H   0  0  0  0  0  0  0  0  0  0  0  0
   20.3960  -11.7450    0.0000 C   0  0  0  0  0  0  0  0  0  0  0  0
   20.3960  -12.7431    0.0000 H   0  0  0  0  0  0  0  0  0  0  0  0
   21.3452  -10.4385    0.0000 C   0  0  0  0  0  0  0  0  0  0  0  0
   21.3452   -9.4404    0.0000 H   0  0  0  0  0  0  0  0  0  0  0  0
   21.9320   -9.6310    0.0000 C   0  0  0  0  0  0  0  0  0  0  0  0
   21.9320   -8.6329    0.0000 C   0  0  0  0  0  0  0  0  0  0  0  0
   17.8030  -12.2440    0.0000 C   0  0  0  0  0  0  0  0  0  0  0  0
   17.8030  -11.2459    0.0000 C   0  0  0  0  0  0  0  0  0  0  0  0
   23.7456  -10.4385    0.0000 N   0  0  0  0  0  0  0  0  0  0  0  0
   24.6098   -9.9394    0.0000 C   0  0  0  0  0  0  0  0  0  0  0  0
   24.6098   -8.9414    0.0000 C   0  0  0  0  0  0  0  0  0  0  0  0
   23.7455   -8.4425    0.0000 C   0  0  0  0  0  0  0  0  0  0  0  0
   22.8812   -8.9415    0.0000 C   0  0  0  0  0  0  0  0  0  0  0  0
   22.8812   -9.9394    0.0000 C   0  0  0  0  0  0  0  0  0  0  0  0
   25.4741   -8.4423    0.0000 C   0  0  0  0  0  0  0  0  0  0  0  0
   22.8812  -10.9375    0.0000 O   0  0  0  0  0  0  0  0  0  0  0  0
   20.3960  -10.7469    0.0000 C   0  0  0  0  0  0  0  0  0  0  0  0
   20.3960   -9.7488    0.0000 C   0  0  0  0  0  0  0  0  0  0  0  0
   16.0744  -13.2421    0.0000 C   0  0  0  0  0  0  0  0  0  0  0  0
   17.8030  -13.2421    0.0000 C   0  0  0  0  0  0  0  0  0  0  0  0
   21.9320  -11.2459    0.0000 C   0  0  0  0  0  0  0  0  0  0  0  0
   21.9320  -12.2440    0.0000 H   0  0  0  0  0  0  0  0  0  0  0  0
  2  3  1  0     0  0
  2  4  1  0     0  0
  3  5  1  0     0  0
  4  6  1  0     0  0
  5  7  1  0     0  0
  6  7  1  0     0  0
  2  1  1  1     0  0
  3  8  1  6     0  0
  5  9  1  1     0  0
  7 10  1  1     0  0
  6 11  1  1     0  0
 12 11  1  0     0  0
 13 14  1  0     0  0
 13 15  1  0     0  0
 14 16  1  0     0  0
 15 17  1  0     0  0
 16 18  1  0     0  0
 17 18  1  0     0  0
 13 10  1  1     0  0
 14 19  1  6     0  0
 16 20  1  1     0  0
 18 21  1  6     0  0
 17 22  1  1     0  0
 23 22  1  0     0  0
 24 25  1  0     0  0
 24 26  1  0     0  0
 25 27  1  0     0  0
 26 28  1  0     0  0
 27 29  1  0     0  0
 28 29  1  0     0  0
 24 20  1  1     0  0
 25 30  1  6     0  0
 27 31  1  1     0  0
 29 32  1  6     0  0
 33 34  1  0     0  0
 33 35  1  0     0  0
 34 36  1  0     0  0
 35 37  1  0     0  0
 36 38  1  0     0  0
 37 38  1  0     0  0
 33 19  1  1     0  0
 34 39  1  6     0  0
 36 40  1  1     0  0
 38 41  1  6     0  0
 37 42  1  1     0  0
 43 42  1  0     0  0
 44 45  1  0     0  0
 72 44  1  0     0  0
 54 45  1  0     0  0
 52 46  1  0     0  0
 46 47  1  0     0  0
 47 75  2  0     0  0
 75 48  1  0     0  0
 48 74  1  0     0  0
 50 49  1  0     0  0
 49 74  1  0     0  0
 62 50  1  0     0  0
 76 51  1  0     0  0
 56 51  1  0     0  0
 52 54  1  0     0  0
 56 52  1  0     0  0
 52 53  1  1     0  0
 54 62  1  0     0  0
 54 55  1  6     0  0
 72 56  1  0     0  0
 56 57  1  6     0  0
 58 72  1  0     0  0
 58 76  1  0     0  0
 60 58  1  0     0  0
 58 59  1  6     0  0
 69 60  1  0     0  0
 60 61  1  6     0  0
 62 75  1  0     0  0
 62 63  1  1     0  0
 64 65  1  0     0  0
 69 64  1  1     0  0
 65 66  1  0     0  0
 66 67  1  0     0  0
 66 70  1  6     0  0
 67 68  1  0     0  0
 69 68  1  6     0  0
 69 71  1  0     0  0
 76 71  1  0     0  0
 72 73  1  1     0  0
 74  1  1  1     0  0
 76 77  1  6     0  0
M  END
> <ID>
CHEBI:131494

> <NAME>
5,6-dehydrotomatine

$$$$

Ketcher 06031611152D 1   1.00000     0.00000     0

 36 39  0     0  0            999 V2000
   -3.6429    1.1072    0.0000 C   0  0  0  0  0  0  0  0  0  0  0  0
   -4.5089    0.6072    0.0000 C   0  0  0  0  0  0  0  0  0  0  0  0
   -4.5089   -0.3928    0.0000 C   0  0  0  0  0  0  0  0  0  0  0  0
   -3.6429   -0.8928    0.0000 C   0  0  0  0  0  0  0  0  0  0  0  0
   -2.7769   -0.3928    0.0000 C   0  0  0  0  0  0  0  0  0  0  0  0
   -2.7769    0.6072    0.0000 C   0  0  0  0  0  0  0  0  0  0  0  0
   -1.9108    1.1072    0.0000 C   0  0  0  0  0  0  0  0  0  0  0  0
   -1.9108   -0.8928    0.0000 C   0  0  0  0  0  0  0  0  0  0  0  0
   -1.0448   -0.3928    0.0000 C   0  0  0  0  0  0  0  0  0  0  0  0
   -1.0448    0.6072    0.0000 C   0  0  0  0  0  0  0  0  0  0  0  0
   -1.0448    2.6072    0.0000 C   0  0  0  0  0  0  0  0  0  0  0  0
   -1.9108    2.1072    0.0000 C   0  0  0  0  0  0  0  0  0  0  0  0
   -0.1788    1.1072    0.0000 C   0  0  0  0  0  0  0  0  0  0  0  0
   -0.1788    2.1072    0.0000 C   0  0  0  0  0  0  0  0  0  0  0  0
    0.6873    2.6072    0.0000 C   0  0  0  0  0  0  0  0  0  0  0  0
    0.6873    0.6072    0.0000 C   0  0  0  0  0  0  0  0  0  0  0  0
    1.5532    1.1072    0.0000 O   0  0  0  0  0  0  0  0  0  0  0  0
    1.5532    2.1072    0.0000 C   0  0  0  0  0  0  0  0  0  0  0  0
   -5.3749   -0.8928    0.0000 O   0  0  0  0  0  0  0  0  0  0  0  0
   -4.1429   -1.7589    0.0000 C   0  0  0  0  0  0  0  0  0  0  0  0
   -3.1429   -1.7589    0.0000 C   0  0  0  0  0  0  0  0  0  0  0  0
   -1.9108   -1.8928    0.0000 O   0  0  0  0  0  0  0  0  0  0  0  0
   -0.1788   -0.8928    0.0000 O   0  0  0  0  0  0  0  0  0  0  0  0
   -1.9108    0.1072    0.0000 O   0  0  0  0  0  0  0  0  0  0  0  0
   -2.7769    1.6072    0.0000 C   0  0  0  0  0  0  0  0  0  0  0  0
   -1.0448    1.6072    0.0000 C   0  0  0  0  0  0  0  0  0  0  0  0
   -0.1788    3.1072    0.0000 C   0  0  0  0  0  0  0  0  0  0  0  0
   -1.0448    3.6072    0.0000 C   0  0  0  0  0  0  0  0  0  0  0  0
    0.6873    3.6072    0.0000 O   0  0  0  0  0  0  0  0  0  0  0  0
    0.6873   -0.3928    0.0000 O   0  0  0  0  0  0  0  0  0  0  0  0
    2.4192    2.6072    0.0000 C   0  0  0  0  0  0  0  0  0  0  0  0
    3.2852    2.1071    0.0000 O   0  0  0  0  0  0  0  0  0  0  0  0
    2.4193    3.6072    0.0000 O   0  0  0  0  0  0  0  0  0  0  0  0
    4.1513    2.6071    0.0000 C   0  0  0  0  0  0  0  0  0  0  0  0
    2.4192    1.6072    0.0000 C   0  0  0  0  0  0  0  0  0  0  0  0
   -0.1788    0.1072    0.0000 H   0  0  0  0  0  0  0  0  0  0  0  0
  1  2  1  0     0  0
  1  6  1  0     0  0
  2  3  1  0     0  0
  3  4  1  0     0  0
  4  5  1  0     0  0
  5  6  1  0     0  0
  8  9  1  0     0  0
  9 10  1  0     0  0
  7 10  1  0     0  0
  5  8  2  0     0  0
  7  6  1  0     0  0
 11 12  1  0     0  0
 13 14  1  0     0  0
 11 14  1  0     0  0
 10 13  1  0     0  0
 12  7  1  0     0  0
 16 17  1  0     0  0
 17 18  1  0     0  0
 15 18  1  0     0  0
 13 16  1  0     0  0
 15 14  1  0     0  0
  3 19  2  0     0  0
  4 20  1  0     0  0
  4 21  1  0     0  0
  8 22  1  0     0  0
  9 23  2  0     0  0
  7 24  1  1     0  0
  6 25  1  6     0  0
 10 26  1  6     0  0
 14 27  1  6     0  0
 11 28  2  0     0  0
 15 29  2  0     0  0
 16 30  2  0     0  0
 18 31  1  0     0  0
 31 32  1  0     0  0
 31 33  2  0     0  0
 32 34  1  0     0  0
 18 35  1  6     0  0
 13 36  1  1     0  0
M  END
> <ID>
CHEBI:131855

> <NAME>
terretonin

$$$$

Ketcher 10131616172D 1   1.00000     0.00000     0

 12 12  0     0  0            999 V2000
    7.8195   -7.6869    0.0000 C   0  0  0  0  0  0  0  0  0  0  0  0
    6.9534   -7.1870    0.0000 C   0  0  0  0  0  0  0  0  0  0  0  0
    8.6856   -7.1870    0.0000 C   0  0  0  0  0  0  0  0  0  0  0  0
    7.8195   -8.6869    0.0000 C   0  0  0  0  0  0  0  0  0  0  0  0
    6.9534   -6.1870    0.0000 C   0  0  0  0  0  0  0  0  0  0  0  0
    8.6856   -6.1870    0.0000 C   0  0  0  0  0  0  0  0  0  0  0  0
    7.8195   -5.6870    0.0000 C   0  0  0  0  0  0  0  0  0  0  0  0
    7.8195   -4.6869    0.0000 O   0  0  0  0  0  0  0  0  0  0  0  0
    8.6856   -4.1869    0.0000 S   0  0  0  0  0  0  0  0  0  0  0  0
    9.5514   -4.6869    0.0000 O   0  0  0  0  0  0  0  0  0  0  0  0
    9.1855   -3.3209    0.0000 O   0  0  0  0  0  0  0  0  0  0  0  0
    8.1856   -3.3209    0.0000 O   0  0  0  0  0  0  0  0  0  0  0  0
  1  2  1  0     0  0
  1  3  2  0     0  0
  1  4  1  0     0  0
  2  5  2  0     0  0
  3  6  1  0     0  0
  5  7  1  0     0  0
  7  8  1  0     0  0
  6  7  2  0     0  0
  9  8  1  0     0  0
  9 10  1  0     0  0
 11  9  2  0     0  0
 12  9  2  0     0  0
M  CHG  1  10  -1
M  END
> <ID>
CHEBI:133670

> <NAME>
p-cresol sulfate(1-)

$$$$

Ketcher 10131616492D 1   1.00000     0.00000     0

 13 13  0     0  0            999 V2000
    2.7874   -6.2593    0.0000 C   0  0  0  0  0  0  0  0  0  0  0  0
    1.9196   -5.7620    0.0000 C   0  0  0  0  0  0  0  0  0  0  0  0
    3.6521   -5.7563    0.0000 C   0  0  0  0  0  0  0  0  0  0  0  0
    1.9164   -4.7616    0.0000 C   0  0  0  0  0  0  0  0  0  0  0  0
    3.6488   -4.7562    0.0000 C   0  0  0  0  0  0  0  0  0  0  0  0
    2.7810   -4.2589    0.0000 C   0  0  0  0  0  0  0  0  0  0  0  0
    4.5199   -6.2536    0.0000 O   0  0  0  0  0  0  0  0  0  0  0  0
    1.0486   -4.2643    0.0000 C   0  0  0  0  0  0  0  0  0  0  0  0
    5.3832   -5.7545    0.0000 S   0  0  0  0  0  0  0  0  0  0  0  0
    6.2492   -6.2544    0.0000 O   0  0  0  0  0  0  0  0  0  0  0  0
    5.8833   -4.8881    0.0000 O   0  0  0  0  0  0  0  0  0  0  0  0
    4.8831   -4.8881    0.0000 O   0  0  0  0  0  0  0  0  0  0  0  0
    0.1839   -4.7672    0.0000 C   0  0  0  0  0  0  0  0  0  0  0  0
  2  1  1  0     0  0
  3  1  2  0     0  0
  4  2  2  0     0  0
  5  3  1  0     0  0
  6  4  1  0     0  0
  6  5  2  0     0  0
  7  3  1  0     0  0
  8  4  1  0     0  0
  9  7  1  0     0  0
  9 10  1  0     0  0
 11  9  2  0     0  0
 12  9  2  0     0  0
  8 13  1  0     0  0
M  CHG  1  10  -1
M  END
> <ID>
CHEBI:133681

> <NAME>
4-ethylphenyl sulfate(1-)

$$$$

Ketcher 04211712352D 1   1.00000     0.00000     0

 19 20  0     1  0            999 V2000
   13.6517   -3.9302    0.0000 O   0  0  0  0  0  0  0  0  0  0  0  0
   14.6741   -6.2822    0.0000 O   0  0  0  0  0  0  0  0  0  0  0  0
   12.5065   -6.2592    0.0000 O   0  0  0  0  0  0  0  0  0  0  0  0
   11.0844   -4.4836    0.0000 O   0  0  0  0  0  0  0  0  0  0  0  0
   17.9025   -5.5674    0.0000 O   0  0  0  0  0  0  0  0  0  0  0  0
   18.7711   -4.0915    0.0000 O   0  0  0  0  0  0  0  0  0  0  0  0
   15.3275   -4.0378    0.0000 N   0  0  0  0  0  0  0  0  0  0  0  0
   17.9410   -2.5773    0.0000 N   0  0  0  0  0  0  0  0  0  0  0  0
   14.4435   -4.5374    0.0000 C   0  0  0  0  0  0  0  0  0  0  0  0
   14.1130   -5.4291    0.0000 C   0  0  0  0  0  0  0  0  0  0  0  0
   13.1214   -5.4521    0.0000 C   0  0  0  0  0  0  0  0  0  0  0  0
   12.8293   -4.4990    0.0000 C   0  0  0  0  0  0  0  0  0  0  0  0
   16.1884   -4.5527    0.0000 C   0  0  0  0  0  0  0  0  0  0  0  0
   17.0570   -4.0608    0.0000 C   0  0  0  0  0  0  0  0  0  0  0  0
   15.2891   -3.0462    0.0000 C   0  0  0  0  0  0  0  0  0  0  0  0
   17.0724   -3.0693    0.0000 C   0  0  0  0  0  0  0  0  0  0  0  0
   16.2115   -2.5542    0.0000 C   0  0  0  0  0  0  0  0  0  0  0  0
   11.9530   -3.9994    0.0000 C   0  0  0  0  0  0  0  0  0  0  0  0
   17.9102   -4.5758    0.0000 C   0  0  0  0  0  0  0  0  0  0  0  0
  1  9  1  0     0  0
  1 12  1  0     0  0
 10  2  1  6     0  0
 11  3  1  6     0  0
  4 18  1  0     0  0
  5 19  2  0     0  0
  6 19  1  0     0  0
  9  7  1  1     0  0
  7 13  1  0     0  0
  7 15  1  0     0  0
  8 16  2  0     0  0
  9 10  1  0     0  0
 10 11  1  0     0  0
 11 12  1  0     0  0
 12 18  1  1     0  0
 13 14  2  0     0  0
 14 16  1  0     0  0
 14 19  1  0     0  0
 15 17  2  0     0  0
 16 17  1  0     0  0
M  END
> <ID>
CHEBI:133925

> <NAME>
clitidine

$$$$

Ketcher 04031715162D 1   1.00000     0.00000     0

 31 35  0     0  0            999 V2000
    3.1486   -5.1759    0.0000 C   0  0  0  0  0  0  0  0  0  0  0  0
    4.1239   -5.3923    0.0000 N   0  0  0  0  0  0  0  0  0  0  0  0
    2.8418   -4.2203    0.0000 C   0  0  0  0  0  0  0  0  0  0  0  0
    3.0139   -6.1781    0.0000 N   0  0  0  0  0  0  0  0  0  0  0  0
    4.4227   -6.3558    0.0000 C   0  0  0  0  0  0  0  0  0  0  0  0
    2.3304   -5.7617    0.0000 N   0  0  0  0  0  0  0  0  0  0  0  0
    4.7958   -4.6470    0.0000 C   0  0  0  0  0  0  0  0  0  0  0  0
    3.7329   -6.9514    0.0000 C   0  0  0  0  0  0  0  0  0  0  0  0
    1.8352   -4.2203    0.0000 C   0  0  0  0  0  0  0  0  0  0  0  0
    3.5118   -3.4860    0.0000 C   0  0  0  0  0  0  0  0  0  0  0  0
    1.5169   -5.1754    0.0000 C   0  0  0  0  0  0  0  0  0  0  0  0
    4.4905   -3.6961    0.0000 C   0  0  0  0  0  0  0  0  0  0  0  0
    5.3965   -6.5675    0.0000 C   0  0  0  0  0  0  0  0  0  0  0  0
    2.8227   -3.2533    0.0000 C   0  0  0  0  0  0  0  0  0  0  0  0
    5.1107   -8.3333    0.0000 N   0  0  0  0  0  0  0  0  0  0  0  0
    5.7050   -7.5281    0.0000 C   0  0  0  0  0  0  0  0  0  0  0  0
    6.6473   -8.8463    0.0000 N   0  0  0  0  0  0  0  0  0  0  0  0
    5.6904   -9.1484    0.0000 C   0  0  0  0  0  0  0  0  0  0  0  0
    5.7678   -4.8699    0.0000 O   0  0  0  0  0  0  0  0  0  0  0  0
    3.7439   -7.9454    0.0000 O   0  0  0  0  0  0  0  0  0  0  0  0
    6.6489   -7.8447    0.0000 C   0  0  0  0  0  0  0  0  0  0  0  0
    2.3289   -6.7633    0.0000 O   0  0  0  0  0  0  0  0  0  0  0  0
    5.1558   -2.9635    0.0000 O   0  0  0  0  0  0  0  0  0  0  0  0
    1.1705   -3.4697    0.0000 C   0  0  0  0  0  0  0  0  0  0  0  0
    0.5354   -5.3846    0.0000 C   0  0  0  0  0  0  0  0  0  0  0  0
    0.1873   -3.6741    0.0000 C   0  0  0  0  0  0  0  0  0  0  0  0
   -0.1279   -4.6389    0.0000 C   0  0  0  0  0  0  0  0  0  0  0  0
    3.6809   -2.7350    0.0000 C   0  0  0  0  0  0  0  0  0  0  0  0
    3.6852   -1.7323    0.0000 C   0  0  0  0  0  0  0  0  0  0  0  0
    1.8203   -3.2731    0.0000 C   0  0  0  0  0  0  0  0  0  0  0  0
    2.3045   -2.3951    0.0000 C   0  0  0  0  0  0  0  0  0  0  0  0
  2  1  1  0     0  0
  3  1  1  0     0  0
  1  4  1  6     0  0
  5  2  1  0     0  0
  6  1  1  0     0  0
  7  2  1  0     0  0
  8  4  1  0     0  0
  9  3  1  0     0  0
 10  3  1  0     0  0
 11  6  1  0     0  0
 12  7  1  0     0  0
 13  5  2  0     0  0
  3 14  1  6     0  0
 15 16  1  0     0  0
 16 13  1  0     0  0
 17 21  1  0     0  0
 18 15  2  0     0  0
 19  7  2  0     0  0
 20  8  2  0     0  0
 21 16  2  0     0  0
 22  6  1  0     0  0
 23 12  1  0     0  0
 24  9  1  0     0  0
 25 11  1  0     0  0
 26 24  2  0     0  0
 27 25  2  0     0  0
  5  8  1  0     0  0
  9 11  2  0     0  0
 10 12  2  0     0  0
 27 26  1  0     0  0
 17 18  1  0     0  0
 14 28  1  0     0  0
 28 29  2  0     0  0
 30 14  1  0     0  0
 31 14  1  0     0  0
M  END
> <ID>
CHEBI:134347

> <NAME>
glandicoline B

$$$$

Ketcher 02281712122D 1   1.00000     0.00000     0

 19 19  0     1  0            999 V2000
   15.1934  -27.6905    0.0000 C   0  0  0  0  0  0  0  0  0  0  0  0
   15.1934  -28.6890    0.0000 O   0  0  0  0  0  0  0  0  0  0  0  0
   16.0581  -27.1911    0.0000 C   0  0  0  0  0  0  0  0  0  0  0  0
   14.3288  -27.1911    0.0000 O   0  0  0  0  0  0  0  0  0  0  0  0
   16.9229  -27.6905    0.0000 N   0  0  0  0  0  0  0  0  0  0  0  0
   16.0581  -26.1926    0.0000 C   0  0  0  0  0  0  0  0  0  0  0  0
   16.9229  -25.6934    0.0000 C   0  0  0  0  0  0  0  0  0  0  0  0
   16.9229  -24.6949    0.0000 C   0  0  0  0  0  0  0  0  0  0  0  0
   17.7877  -24.1956    0.0000 O   0  0  0  0  0  0  0  0  0  0  0  0
   16.0581  -24.1956    0.0000 N   0  0  0  0  0  0  0  0  0  0  0  0
   14.3169  -23.1852    0.0000 C   0  0  0  0  0  0  0  0  0  0  0  0
   13.3190  -23.1852    0.0000 C   0  0  0  0  0  0  0  0  0  0  0  0
   15.1854  -22.6925    0.0000 C   0  0  0  0  0  0  0  0  0  0  0  0
   13.8242  -24.0537    0.0000 C   0  0  0  0  0  0  0  0  0  0  0  0
   12.4546  -22.6758    0.0000 C   0  0  0  0  0  0  0  0  0  0  0  0
   16.0539  -23.1892    0.0000 C   0  0  0  0  0  0  0  0  0  0  0  0
   16.9225  -22.6966    0.0000 C   0  0  0  0  0  0  0  0  0  0  0  0
   17.7910  -23.1977    0.0000 O   0  0  0  0  0  0  0  0  0  0  0  0
   16.9267  -21.6945    0.0000 O   0  0  0  0  0  0  0  0  0  0  0  0
  2  1  2  0     0  0
  3  1  1  0     0  0
  4  1  1  0     0  0
  3  5  1  6     0  0
  6  3  1  0     0  0
  7  6  1  0     0  0
  8  7  1  0     0  0
  8  9  2  0     0  0
  8 10  1  0     0  0
 11 12  1  0     0  0
 11 13  1  1     0  0
 11 14  1  0     0  0
 12 15  2  0     0  0
 13 16  1  0     0  0
 16 17  1  0     0  0
 16 10  1  1     0  0
 17 18  1  0     0  0
 17 19  2  0     0  0
 12 14  1  0     0  0
M  END
> <ID>
CHEBI:136293

> <NAME>
(2S,4R)-hypoglycin B

$$$$

Ketcher 10122009592D 1   1.00000     0.00000     0

 32 35  0     1  0            999 V2000
   11.8559  -21.6923    0.0000 C   0  0  0  0  0  0  0  0  0  0  0  0
   12.1088  -21.0348    0.0000 O   0  0  0  0  0  0  0  0  0  0  0  0
   14.8400  -22.7039    0.0000 O   0  0  0  0  0  0  0  0  0  0  0  0
   12.9686  -21.6923    0.0000 C   0  0  0  0  0  0  0  0  0  0  0  0
   12.1593  -22.1980    0.0000 C   0  0  0  0  0  0  0  0  0  0  0  0
   12.9686  -20.7819    0.0000 C   0  0  0  0  0  0  0  0  0  0  0  0
   11.2996  -21.6923    0.0000 C   0  0  0  0  0  0  0  0  0  0  0  0
   13.9296  -22.1980    0.0000 C   0  0  0  0  0  0  0  0  0  0  0  0
   12.1593  -23.1591    0.0000 C   0  0  0  0  0  0  0  0  0  0  0  0
   13.9296  -20.7819    0.0000 C   0  0  0  0  0  0  0  0  0  0  0  0
   12.1593  -20.2761    0.0000 O   0  0  0  0  0  0  0  0  0  0  0  0
   11.2996  -20.7313    0.0000 C   0  0  0  0  0  0  0  0  0  0  0  0
   10.4903  -22.1980    0.0000 C   0  0  0  0  0  0  0  0  0  0  0  0
   11.2996  -22.6532    0.0000 C   0  0  0  0  0  0  0  0  0  0  0  0
   14.6377  -20.0738    0.0000 O   0  0  0  0  0  0  0  0  0  0  0  0
   10.4903  -20.2761    0.0000 C   0  0  0  0  0  0  0  0  0  0  0  0
    9.6305  -21.6923    0.0000 C   0  0  0  0  0  0  0  0  0  0  0  0
    9.6305  -20.7313    0.0000 C   0  0  0  0  0  0  0  0  0  0  0  0
    8.8213  -22.1980    0.0000 O   0  0  0  0  0  0  0  0  0  0  0  0
    8.8213  -20.2761    0.0000 C   0  0  0  0  0  0  0  0  0  0  0  0
    7.9614  -21.7428    0.0000 C   0  0  0  0  0  0  0  0  0  0  0  0
    7.1521  -22.1980    0.0000 C   0  0  0  0  0  0  0  0  0  0  0  0
    7.9614  -20.7313    0.0000 O   0  0  0  0  0  0  0  0  0  0  0  0
    6.2924  -21.7428    0.0000 C   0  0  0  0  0  0  0  0  0  0  0  0
    5.4831  -22.1980    0.0000 C   0  0  0  0  0  0  0  0  0  0  0  0
    6.2924  -20.7819    0.0000 C   0  0  0  0  0  0  0  0  0  0  0  0
   12.9686  -19.8209    0.0000 H   0  0  0  0  0  0  0  0  0  0  0  0
   11.2996  -19.7703    0.0000 H   0  0  0  0  0  0  0  0  0  0  0  0
   10.4633  -23.1264    0.0000 O   0  0  0  0  0  0  0  0  0  0  0  0
   10.4549  -24.0873    0.0000 C   0  0  0  0  0  0  0  0  0  0  0  0
    9.6184  -24.5604    0.0000 C   0  0  0  0  0  0  0  0  0  0  0  0
   11.2828  -24.5751    0.0000 O   0  0  0  0  0  0  0  0  0  0  0  0
  1  2  1  0     0  0
  4  5  1  0     0  0
  4  6  1  0     0  0
  4  2  1  1     0  0
  5  7  1  0     0  0
  5  8  1  0     0  0
  5  9  1  1     0  0
  6 10  1  0     0  0
  6 11  1  0     0  0
  7 12  1  0     0  0
  7 13  1  0     0  0
  7 14  1  6     0  0
 10 15  1  6     0  0
 12 16  1  0     0  0
 13 17  1  0     0  0
 16 18  2  0     0  0
 17 19  1  6     0  0
 18 20  1  0     0  0
 19 21  1  0     0  0
 21 22  1  0     0  0
 21 23  2  0     0  0
 22 24  1  0     0  0
 24 25  1  0     0  0
 24 26  1  0     0  0
  8 10  1  0     0  0
 11 12  1  0     0  0
 17 18  1  0     0  0
  6 27  1  1     0  0
 12 28  1  6     0  0
  8  3  1  1     0  0
  4  1  1  0     0  0
 14 29  1  0     0  0
 29 30  1  0     0  0
 30 31  1  0     0  0
 30 32  2  0     0  0
M  END
> <ID>
CHEBI:138861

> <NAME>
HT-2 toxin

$$$$

  Ketcher 04041717022D 1   1.00000     0.00000     0

  0  0  0     0  0            999 V2000
M  END> <ID>
CHEBI:139395

> <NAME>
phytocassane

$$$$

Ketcher 11151811462D 1   1.00000     0.00000     0

 20 22  0     0  0            999 V2000
   11.7815  -19.5943    0.0000 C   0  0  0  0  0  0  0  0  0  0  0  0
   12.6475  -19.0944    0.0000 C   0  0  0  0  0  0  0  0  0  0  0  0
   12.6475  -18.0944    0.0000 C   0  0  0  0  0  0  0  0  0  0  0  0
   11.7815  -17.5944    0.0000 C   0  0  0  0  0  0  0  0  0  0  0  0
   10.9155  -18.0944    0.0000 C   0  0  0  0  0  0  0  0  0  0  0  0
   10.9155  -19.0944    0.0000 C   0  0  0  0  0  0  0  0  0  0  0  0
   13.5136  -19.5943    0.0000 O   0  0  0  0  0  0  0  0  0  0  0  0
   14.3796  -19.0944    0.0000 C   0  0  0  0  0  0  0  0  0  0  0  0
   14.3796  -18.0944    0.0000 C   0  0  0  0  0  0  0  0  0  0  0  0
   13.5135  -17.5944    0.0000 C   0  0  0  0  0  0  0  0  0  0  0  0
   15.2457  -17.5944    0.0000 C   0  0  0  0  0  0  0  0  0  0  0  0
   15.2457  -16.5943    0.0000 C   0  0  0  0  0  0  0  0  0  0  0  0
   14.3796  -16.0943    0.0000 C   0  0  0  0  0  0  0  0  0  0  0  0
   13.5136  -16.5944    0.0000 C   0  0  0  0  0  0  0  0  0  0  0  0
   15.2456  -19.5943    0.0000 O   0  0  0  0  0  0  0  0  0  0  0  0
   16.1117  -18.0944    0.0000 O   0  0  0  0  0  0  0  0  0  0  0  0
   10.0495  -19.5943    0.0000 O   0  0  0  0  0  0  0  0  0  0  0  0
   14.3796  -15.0943    0.0000 O   0  0  0  0  0  0  0  0  0  0  0  0
   15.2457  -14.5943    0.0000 C   0  0  0  0  0  0  0  0  0  0  0  0
   11.7815  -16.5944    0.0000 C   0  0  0  0  0  0  0  0  0  0  0  0
  1  2  1  0     0  0
  2  3  2  0     0  0
  3  4  1  0     0  0
  4  5  2  0     0  0
  5  6  1  0     0  0
  6  1  2  0     0  0
  2  7  1  0     0  0
  7  8  1  0     0  0
  8  9  1  0     0  0
  9 10  2  0     0  0
 10  3  1  0     0  0
  9 11  1  0     0  0
 11 12  2  0     0  0
 12 13  1  0     0  0
 13 14  2  0     0  0
 14 10  1  0     0  0
  8 15  2  0     0  0
 11 16  1  0     0  0
  6 17  1  0     0  0
 13 18  1  0     0  0
 18 19  1  0     0  0
  4 20  1  0     0  0
M  END
> <ID>
CHEBI:141315

> <NAME>
djalonensone

$$$$

Ketcher 08021811522D 1   1.00000     0.00000     0

 30 32  0     1  0            999 V2000
   34.8365   -1.6239    0.0000 C   0  0  0  0  0  0  0  0  0  0  0  0
   33.9705   -2.1239    0.0000 C   0  0  0  0  0  0  0  0  0  0  0  0
   33.9705   -3.1240    0.0000 C   0  0  0  0  0  0  0  0  0  0  0  0
   34.8365   -3.6240    0.0000 C   0  0  0  0  0  0  0  0  0  0  0  0
   35.7026   -3.1240    0.0000 C   0  0  0  0  0  0  0  0  0  0  0  0
   35.7026   -2.1239    0.0000 C   0  0  0  0  0  0  0  0  0  0  0  0
   36.5685   -1.6239    0.0000 C   0  0  0  0  0  0  0  0  0  0  0  0
   38.3006   -0.6239    0.0000 O   0  0  0  0  0  0  0  0  0  0  0  0
   38.3006   -1.6239    0.0000 C   0  0  0  0  0  0  0  0  0  0  0  0
   39.1665   -2.1239    0.0000 O   0  0  0  0  0  0  0  0  0  0  0  0
   37.4345   -2.1239    0.0000 C   0  0  0  0  0  0  0  0  0  0  0  0
   37.4345   -3.1239    0.0000 N   0  0  0  0  0  0  0  0  0  0  0  0
   39.1665   -3.1239    0.0000 O   0  0  0  0  0  0  0  0  0  0  0  0
   38.3006   -3.6239    0.0000 C   0  0  0  0  0  0  0  0  0  0  0  0
   38.3006   -4.6238    0.0000 C   0  0  0  0  0  0  0  0  0  0  0  0
   37.4345   -5.1240    0.0000 C   0  0  0  0  0  0  0  0  0  0  0  0
   39.1665   -5.1240    0.0000 C   0  0  0  0  0  0  0  0  0  0  0  0
   39.1665   -6.1239    0.0000 C   0  0  0  0  0  0  0  0  0  0  0  0
   38.3006   -6.6239    0.0000 C   0  0  0  0  0  0  0  0  0  0  0  0
   38.3006   -7.6239    0.0000 C   0  0  0  0  0  0  0  0  0  0  0  0
   40.0326   -6.6239    0.0000 C   0  0  0  0  0  0  0  0  0  0  0  0
   40.8986   -6.1239    0.0000 O   0  0  0  0  0  0  0  0  0  0  0  0
   40.0326   -7.6239    0.0000 O   0  0  0  0  0  0  0  0  0  0  0  0
   37.4345   -6.1239    0.0000 C   0  0  0  0  0  0  0  0  0  0  0  0
   36.5685   -6.6239    0.0000 Cl  0  0  0  0  0  0  0  0  0  0  0  0
   39.1665   -8.1239    0.0000 C   0  0  0  0  0  0  0  0  0  0  0  0
   39.1665   -9.1239    0.0000 C   0  0  0  0  0  0  0  0  0  0  0  0
   40.0326   -4.6240    0.0000 O   0  0  0  0  0  0  0  0  0  0  0  0
   40.0326   -1.6239    0.0000 C   0  0  0  0  0  0  0  0  0  0  0  0
   40.8986   -2.1239    0.0000 C   0  0  0  0  0  0  0  0  0  0  0  0
  1  2  2  0     0  0
  1  6  1  0     0  0
  2  3  1  0     0  0
  3  4  2  0     0  0
  4  5  1  0     0  0
  5  6  2  0     0  0
  6  7  1  0     0  0
  7 11  1  0     0  0
 11  9  1  0     0  0
  9  8  2  0     0  0
  9 10  1  0     0  0
 11 12  1  1     0  0
 12 14  1  0     0  0
 14 13  2  0     0  0
 14 15  1  0     0  0
 15 16  2  0     0  0
 15 17  1  0     0  0
 16 24  1  0     0  0
 24 19  2  0     0  0
 18 17  2  0     0  0
 18 21  1  0     0  0
 18 19  1  0     0  0
 19 20  1  0     0  0
 20 26  1  0     0  0
 26 23  1  0     0  0
 23 21  1  0     0  0
 21 22  2  0     0  0
 24 25  1  0     0  0
 26 27  1  6     0  0
 17 28  1  0     0  0
 10 29  1  0     0  0
 29 30  1  0     0  0
M  END
> <ID>
CHEBI:141525

> <NAME>
ochratoxin C

$$$$

Ketcher 09071818172D 1   1.00000     0.00000     0

 29 31  0     1  0            999 V2000
    3.2762   -7.0079    0.0000 C   0  0  0  0  0  0  0  0  0  0  0  0
    2.4003   -7.5137    0.0000 C   0  0  0  0  0  0  0  0  0  0  0  0
    2.4003   -8.5252    0.0000 C   0  0  0  0  0  0  0  0  0  0  0  0
    3.2762   -9.0309    0.0000 C   0  0  0  0  0  0  0  0  0  0  0  0
    4.1521   -8.5252    0.0000 C   0  0  0  0  0  0  0  0  0  0  0  0
    4.1521   -7.5137    0.0000 C   0  0  0  0  0  0  0  0  0  0  0  0
    5.0281   -7.0079    0.0000 C   0  0  0  0  0  0  0  0  0  0  0  0
    5.0281   -9.0309    0.0000 C   0  0  0  0  0  0  0  0  0  0  0  0
    5.9039   -8.5252    0.0000 C   0  0  0  0  0  0  0  0  0  0  0  0
    5.9039   -7.5137    0.0000 C   0  0  0  0  0  0  0  0  0  0  0  0
    4.1521   -9.5366    0.0000 H   0  0  0  0  0  0  0  0  0  0  0  0
    1.5243   -9.0309    0.0000 C   0  0  0  0  0  0  0  0  0  0  0  0
    4.1521   -6.6242    0.0000 H   0  0  0  0  0  0  0  0  0  0  0  0
    4.5287   -6.1318    0.0000 C   0  0  0  0  0  0  0  0  0  0  0  0
    3.5172   -6.1278    0.0000 O   0  0  0  0  0  0  0  0  0  0  0  0
    5.0378   -5.2579    0.0000 C   0  0  0  0  0  0  0  0  0  0  0  0
    4.7060   -4.3029    0.0000 C   0  0  0  0  0  0  0  0  0  0  0  0
    6.0483   -5.2390    0.0000 C   0  0  0  0  0  0  0  0  0  0  0  0
    6.3421   -4.2711    0.0000 C   0  0  0  0  0  0  0  0  0  0  0  0
    5.5125   -3.6926    0.0000 N   0  0  0  0  0  0  0  0  0  0  0  0
    6.5254   -5.8633    0.0000 O   0  0  0  0  0  0  0  0  0  0  0  0
    3.7381   -4.0090    0.0000 O   0  0  0  0  0  0  0  0  0  0  0  0
    7.2978   -3.9399    0.0000 C   0  0  0  0  0  0  0  0  0  0  0  0
    5.5372   -6.1373    0.0000 C   0  0  0  0  0  0  0  0  0  0  0  0
    6.4097   -6.6379    0.0000 C   0  0  0  0  0  0  0  0  0  0  0  0
    6.9153   -7.5139    0.0000 H   0  0  0  0  0  0  0  0  0  0  0  0
    7.4211   -6.6380    0.0000 C   0  0  0  0  0  0  0  0  0  0  0  0
    7.9269   -5.7620    0.0000 C   0  0  0  0  0  0  0  0  0  0  0  0
    8.0808   -4.5802    0.0000 O   0  0  0  0  0  0  0  0  0  0  0  0
  1  2  1  0     0  0
  2  3  1  0     0  0
  3  4  1  0     0  0
  4  5  1  0     0  0
  5  6  1  0     0  0
  1  6  1  0     0  0
  8  9  2  0     0  0
  9 10  1  0     0  0
  7 10  1  0     0  0
  5  8  1  0     0  0
  7  6  1  0     0  0
  5 11  1  1     0  0
  3 12  1  6     0  0
  6 13  1  6     0  0
 14 15  1  0     0  0
 14 16  2  0     0  0
 18 19  1  0     0  0
 19 20  1  0     0  0
 17 20  1  0     0  0
 17 16  1  0     0  0
 16 18  1  0     0  0
 18 21  2  0     0  0
 17 22  2  0     0  0
 19 23  1  1     0  0
  7 14  1  0     0  0
  7 24  1  1     0  0
 25 10  1  0     0  0
 10 26  1  1     0  0
 25 27  2  0     0  0
 27 28  1  0     0  0
 23 29  1  0     0  0
M  CHG  1  15  -1
M  END
> <ID>
CHEBI:142061

> <NAME>
trichosetin(1-)

$$$$

Ketcher 09071816092D 1   1.00000     0.00000     0

 29 31  0     1  0            999 V2000
    3.2762   -7.0079    0.0000 C   0  0  0  0  0  0  0  0  0  0  0  0
    2.4003   -7.5137    0.0000 C   0  0  0  0  0  0  0  0  0  0  0  0
    2.4003   -8.5252    0.0000 C   0  0  0  0  0  0  0  0  0  0  0  0
    3.2762   -9.0309    0.0000 C   0  0  0  0  0  0  0  0  0  0  0  0
    4.1521   -8.5252    0.0000 C   0  0  0  0  0  0  0  0  0  0  0  0
    4.1521   -7.5137    0.0000 C   0  0  0  0  0  0  0  0  0  0  0  0
    5.0281   -7.0079    0.0000 C   0  0  0  0  0  0  0  0  0  0  0  0
    5.0281   -9.0309    0.0000 C   0  0  0  0  0  0  0  0  0  0  0  0
    5.9039   -8.5252    0.0000 C   0  0  0  0  0  0  0  0  0  0  0  0
    5.9039   -7.5137    0.0000 C   0  0  0  0  0  0  0  0  0  0  0  0
    4.1521   -9.5366    0.0000 H   0  0  0  0  0  0  0  0  0  0  0  0
    1.5243   -9.0309    0.0000 C   0  0  0  0  0  0  0  0  0  0  0  0
    4.1521   -6.6242    0.0000 H   0  0  0  0  0  0  0  0  0  0  0  0
    4.5287   -6.1318    0.0000 C   0  0  0  0  0  0  0  0  0  0  0  0
    3.5172   -6.1278    0.0000 O   0  0  0  0  0  0  0  0  0  0  0  0
    5.0378   -5.2579    0.0000 C   0  0  0  0  0  0  0  0  0  0  0  0
    4.7060   -4.3029    0.0000 C   0  0  0  0  0  0  0  0  0  0  0  0
    6.0483   -5.2390    0.0000 C   0  0  0  0  0  0  0  0  0  0  0  0
    6.3421   -4.2711    0.0000 C   0  0  0  0  0  0  0  0  0  0  0  0
    5.5125   -3.6926    0.0000 N   0  0  0  0  0  0  0  0  0  0  0  0
    6.5254   -5.8633    0.0000 O   0  0  0  0  0  0  0  0  0  0  0  0
    3.7381   -4.0090    0.0000 O   0  0  0  0  0  0  0  0  0  0  0  0
    7.2978   -3.9399    0.0000 C   0  0  0  0  0  0  0  0  0  0  0  0
    5.5372   -6.1373    0.0000 C   0  0  0  0  0  0  0  0  0  0  0  0
    6.4097   -6.6379    0.0000 C   0  0  0  0  0  0  0  0  0  0  0  0
    6.9153   -7.5139    0.0000 H   0  0  0  0  0  0  0  0  0  0  0  0
    7.4211   -6.6380    0.0000 C   0  0  0  0  0  0  0  0  0  0  0  0
    7.9269   -5.7620    0.0000 C   0  0  0  0  0  0  0  0  0  0  0  0
    8.0808   -4.5802    0.0000 O   0  0  0  0  0  0  0  0  0  0  0  0
  1  2  1  0     0  0
  2  3  1  0     0  0
  3  4  1  0     0  0
  4  5  1  0     0  0
  5  6  1  0     0  0
  1  6  1  0     0  0
  8  9  2  0     0  0
  9 10  1  0     0  0
  7 10  1  0     0  0
  5  8  1  0     0  0
  7  6  1  0     0  0
  5 11  1  1     0  0
  3 12  1  6     0  0
  6 13  1  6     0  0
 14 15  1  0     0  0
 14 16  2  0     0  0
 18 19  1  0     0  0
 19 20  1  0     0  0
 17 20  1  0     0  0
 17 16  1  0     0  0
 16 18  1  0     0  0
 18 21  2  0     0  0
 17 22  2  0     0  0
 19 23  1  1     0  0
  7 14  1  0     0  0
  7 24  1  1     0  0
 25 10  1  0     0  0
 10 26  1  1     0  0
 25 27  2  0     0  0
 27 28  1  0     0  0
 23 29  1  0     0  0
M  END
> <ID>
CHEBI:142133

> <NAME>
trichosetin

$$$$

Ketcher 09201812012D 1   1.00000     0.00000     0

 18 19  0     1  0            999 V2000
   23.5871  -16.4982    0.0000 C   0  0  0  0  0  0  0  0  0  0  0  0
   22.7207  -15.9981    0.0000 C   0  0  0  0  0  0  0  0  0  0  0  0
   21.8545  -16.4982    0.0000 C   0  0  0  0  0  0  0  0  0  0  0  0
   23.5871  -17.4985    0.0000 C   0  0  0  0  0  0  0  0  0  0  0  0
   22.7207  -17.9987    0.0000 C   0  0  0  0  0  0  0  0  0  0  0  0
   20.9882  -18.9990    0.0000 C   0  0  0  0  0  0  0  0  0  0  0  0
   20.1220  -19.4992    0.0000 C   0  0  0  0  0  0  0  0  0  0  0  0
   19.2555  -18.9990    0.0000 C   0  0  0  0  0  0  0  0  0  0  0  0
   19.2555  -17.9987    0.0000 C   0  0  0  0  0  0  0  0  0  0  0  0
   20.9882  -17.9987    0.0000 C   0  0  0  0  0  0  0  0  0  0  0  0
   20.1219  -17.4985    0.0000 C   0  0  0  0  0  0  0  0  0  0  0  0
   24.4533  -15.9981    0.0000 C   0  0  0  0  0  0  0  0  0  0  0  0
   21.8545  -17.4985    0.0000 C   0  0  0  0  0  0  0  0  0  0  0  0
   21.8545  -18.4987    0.0000 H   0  0  0  0  0  0  0  0  0  0  0  0
   20.6247  -20.3619    0.0000 C   0  0  0  0  0  0  0  0  0  0  0  0
   19.6244  -20.3619    0.0000 C   0  0  0  0  0  0  0  0  0  0  0  0
   25.3197  -16.4982    0.0000 O   0  0  0  0  0  0  0  0  0  0  0  0
   24.4533  -14.9977    0.0000 O   0  0  0  0  0  0  0  0  0  0  0  0
  1 12  1  0     0  0
  1  2  2  0     0  0
 13 10  1  0     0  0
  3 13  1  0     0  0
  2  3  1  0     0  0
  4  1  1  0     0  0
  4  5  1  0     0  0
  5 13  1  0     0  0
 10  6  1  0     0  0
  6  7  1  0     0  0
  8  7  1  0     0  0
  8  9  1  0     0  0
 10 11  2  0     0  0
 13 14  1  1     0  0
 11  9  1  0     0  0
  7 15  1  0     0  0
  7 16  1  0     0  0
 12 17  1  0     0  0
 12 18  2  0     0  0
M  END
> <ID>
CHEBI:142278

> <NAME>
zealexin A1

$$$$

Ketcher 07242008552D 1   1.00000     0.00000     0

 64 70  0     1  0            999 V2000
   20.4145  -14.8036    0.0000 C   0  0  0  0  0  0  0  0  0  0  0  0
   19.5128  -14.3027    0.0000 O   0  0  0  0  0  0  0  0  0  0  0  0
   21.2661  -15.3047    0.0000 O   0  0  0  0  0  0  0  0  0  0  0  0
   20.4145  -13.8016    0.0000 C   0  0  0  0  0  0  0  0  0  0  0  0
   20.4145  -15.8056    0.0000 C   0  0  0  0  0  0  0  0  0  0  0  0
   18.6611  -14.8036    0.0000 C   0  0  0  0  0  0  0  0  0  0  0  0
   22.1178  -14.8036    0.0000 C   0  0  0  0  0  0  0  0  0  0  0  0
   21.2661  -13.3007    0.0000 C   0  0  0  0  0  0  0  0  0  0  0  0
   19.5128  -13.3007    0.0000 O   0  0  0  0  0  0  0  0  0  0  0  0
   19.5628  -16.3066    0.0000 C   0  0  0  0  0  0  0  0  0  0  0  0
   18.6611  -15.8056    0.0000 C   0  0  0  0  0  0  0  0  0  0  0  0
   17.8094  -14.3027    0.0000 C   0  0  0  0  0  0  0  0  0  0  0  0
   22.1178  -13.8016    0.0000 C   0  0  0  0  0  0  0  0  0  0  0  0
   22.9695  -15.3047    0.0000 C   0  0  0  0  0  0  0  0  0  0  0  0
   19.5706  -17.2589    0.0000 C   0  0  0  0  0  0  0  0  0  0  0  0
   16.9577  -14.8538    0.0000 C   0  0  0  0  0  0  0  0  0  0  0  0
   17.8094  -13.3508    0.0000 C   0  0  0  0  0  0  0  0  0  0  0  0
   23.8713  -14.8036    0.0000 C   0  0  0  0  0  0  0  0  0  0  0  0
   16.0559  -14.3528    0.0000 C   0  0  0  0  0  0  0  0  0  0  0  0
   24.6228  -15.4048    0.0000 C   0  0  0  0  0  0  0  0  0  0  0  0
   24.3722  -13.9519    0.0000 C   0  0  0  0  0  0  0  0  0  0  0  0
   23.3703  -13.9519    0.0000 O   0  0  0  0  0  0  0  0  0  0  0  0
   15.2043  -14.8538    0.0000 C   0  0  0  0  0  0  0  0  0  0  0  0
   24.6228  -16.3567    0.0000 O   0  0  0  0  0  0  0  0  0  0  0  0
   25.5746  -15.0542    0.0000 O   0  0  0  0  0  0  0  0  0  0  0  0
   14.3526  -14.3528    0.0000 O   0  0  0  0  0  0  0  0  0  0  0  0
   14.9037  -15.8557    0.0000 C   0  0  0  0  0  0  0  0  0  0  0  0
   13.5510  -14.8538    0.0000 C   0  0  0  0  0  0  0  0  0  0  0  0
   13.8516  -15.8557    0.0000 C   0  0  0  0  0  0  0  0  0  0  0  0
   12.6994  -15.3547    0.0000 O   0  0  0  0  0  0  0  0  0  0  0  0
   13.5510  -13.8518    0.0000 C   0  0  0  0  0  0  0  0  0  0  0  0
   11.8477  -14.8538    0.0000 C   0  0  0  0  0  0  0  0  0  0  0  0
   12.6994  -13.3508    0.0000 C   0  0  0  0  0  0  0  0  0  0  0  0
   11.8477  -13.8518    0.0000 C   0  0  0  0  0  0  0  0  0  0  0  0
   10.9459  -15.3547    0.0000 C   0  0  0  0  0  0  0  0  0  0  0  0
   10.9459  -13.3508    0.0000 O   0  0  0  0  0  0  0  0  0  0  0  0
   10.0942  -14.8538    0.0000 C   0  0  0  0  0  0  0  0  0  0  0  0
   10.9459  -16.3567    0.0000 O   0  0  0  0  0  0  0  0  0  0  0  0
   10.0942  -13.8518    0.0000 C   0  0  0  0  0  0  0  0  0  0  0  0
    9.2425  -15.3547    0.0000 C   0  0  0  0  0  0  0  0  0  0  0  0
    9.2425  -13.3508    0.0000 C   0  0  0  0  0  0  0  0  0  0  0  0
    8.1404  -13.8016    0.0000 C   0  0  0  0  0  0  0  0  0  0  0  0
    9.2425  -12.3489    0.0000 O   0  0  0  0  0  0  0  0  0  0  0  0
    7.0383  -13.3508    0.0000 C   0  0  0  0  0  0  0  0  0  0  0  0
    6.1866  -13.8518    0.0000 C   0  0  0  0  0  0  0  0  0  0  0  0
    7.0383  -12.3489    0.0000 C   0  0  0  0  0  0  0  0  0  0  0  0
    5.3349  -13.3508    0.0000 O   0  0  0  0  0  0  0  0  0  0  0  0
    6.1866  -14.8538    0.0000 C   0  0  0  0  0  0  0  0  0  0  0  0
    4.4832  -13.8518    0.0000 C   0  0  0  0  0  0  0  0  0  0  0  0
    5.3349  -15.3547    0.0000 C   0  0  0  0  0  0  0  0  0  0  0  0
    7.0383  -15.3547    0.0000 C   0  0  0  0  0  0  0  0  0  0  0  0
    4.4832  -14.8538    0.0000 C   0  0  0  0  0  0  0  0  0  0  0  0
    4.4832  -12.8498    0.0000 C   0  0  0  0  0  0  0  0  0  0  0  0
    3.6316  -14.3528    0.0000 O   0  0  0  0  0  0  0  0  0  0  0  0
    3.6316  -12.3489    0.0000 C   0  0  0  0  0  0  0  0  0  0  0  0
    2.7799  -13.8518    0.0000 C   0  0  0  0  0  0  0  0  0  0  0  0
    2.7799  -12.8498    0.0000 C   0  0  0  0  0  0  0  0  0  0  0  0
   17.8094  -15.3047    0.0000 H   0  0  0  0  0  0  0  0  0  0  0  0
   16.0559  -15.3547    0.0000 H   0  0  0  0  0  0  0  0  0  0  0  0
   11.8477  -12.8498    0.0000 H   0  0  0  0  0  0  0  0  0  0  0  0
   10.0942  -12.8498    0.0000 H   0  0  0  0  0  0  0  0  0  0  0  0
    5.3530  -12.3523    0.0000 C   0  0  0  0  0  0  0  0  0  0  0  0
   11.8496  -15.7448    0.0000 H   0  0  0  0  0  0  0  0  0  0  0  0
    6.1710  -12.9353    0.0000 H   0  0  0  0  0  0  0  0  0  0  0  0
  1  2  1  0     0  0
  1  3  1  6     0  0
  1  4  1  0     0  0
  1  5  1  0     0  0
  2  6  1  0     0  0
  7  3  1  1     0  0
  4  8  1  0     0  0
  4  9  1  6     0  0
  5 10  2  0     0  0
  6 11  1  0     0  0
  6 12  1  0     0  0
  7 13  1  0     0  0
  7 14  1  0     0  0
 10 15  1  0     0  0
 12 16  1  0     0  0
 12 17  1  1     0  0
 14 18  1  0     0  0
 16 19  2  0     0  0
 18 20  1  0     0  0
 18 21  1  6     0  0
 18 22  1  1     0  0
 19 23  1  0     0  0
 20 24  1  0     0  0
 20 25  2  0     0  0
 26 23  1  0     0  0
 23 27  1  0     0  0
 28 26  1  6     0  0
 27 29  1  0     0  0
 28 30  1  0     0  0
 28 31  1  0     0  0
 30 32  1  0     0  0
 31 33  1  0     0  0
 32 34  1  0     0  0
 32 35  1  0     0  0
 34 36  1  0     0  0
 35 37  1  0     0  0
 35 38  1  6     0  0
 36 39  1  0     0  0
 37 40  2  0     0  0
 39 41  1  0     0  0
 41 42  1  0     0  0
 41 43  1  6     0  0
 42 44  1  0     0  0
 44 45  1  0     0  0
 44 46  1  1     0  0
 45 47  1  0     0  0
 45 48  1  0     0  0
 47 49  1  0     0  0
 48 50  1  0     0  0
 48 51  1  6     0  0
 49 52  1  0     0  0
 49 53  1  0     0  0
 49 54  1  1     0  0
 53 55  1  0     0  0
 54 56  1  0     0  0
 55 57  1  0     0  0
  8 13  1  0     0  0
 10 11  1  0     0  0
 28 29  1  0     0  0
 33 34  1  0     0  0
 37 39  1  0     0  0
 50 52  1  0     0  0
 56 57  1  0     0  0
  6 58  1  6     0  0
 23 59  1  6     0  0
 34 60  1  1     0  0
 39 61  1  6     0  0
 53 62  1  1     0  0
 32 63  1  6     0  0
 45 64  1  1     0  0
M  END
> <ID>
CHEBI:144400

> <NAME>
dinophysistoxin 1

$$$$

Ketcher 10091916392D 1   1.00000     0.00000     0

 31 33  0     1  0            999 V2000
    6.5930  -15.3677    0.0000 C   0  0  0  0  0  0  0  0  0  0  0  0
    5.5720  -15.6989    0.0000 C   0  0  0  0  0  0  0  0  0  0  0  0
    5.0138  -16.3215    0.0000 C   0  0  0  0  0  0  0  0  0  0  0  0
    5.9148  -16.6523    0.0000 C   0  0  0  0  0  0  0  0  0  0  0  0
    6.9362  -16.3211    0.0000 C   0  0  0  0  0  0  0  0  0  0  0  0
    7.4947  -15.6989    0.0000 C   0  0  0  0  0  0  0  0  0  0  0  0
    7.9174  -16.6921    0.0000 C   0  0  0  0  0  0  0  0  0  0  0  0
    8.8189  -16.3610    0.0000 C   0  0  0  0  0  0  0  0  0  0  0  0
    9.3774  -15.7388    0.0000 C   0  0  0  0  0  0  0  0  0  0  0  0
    8.4759  -15.4077    0.0000 C   0  0  0  0  0  0  0  0  0  0  0  0
    9.2364  -15.2569    0.0000 C   0  0  0  0  0  0  0  0  0  0  0  0
    7.6570  -16.3419    0.0000 H   0  0  0  0  0  0  0  0  0  0  0  0
    6.6190  -13.3134    0.0000 C   0  0  0  0  0  0  0  0  0  0  0  0
    6.4841  -15.7434    0.0000 H   0  0  0  0  0  0  0  0  0  0  0  0
    7.1656  -14.9490    0.0000 C   0  0  0  0  0  0  0  0  0  0  0  0
    4.6705  -15.3677    0.0000 O   0  0  0  0  0  0  0  0  0  0  0  0
    5.3988  -17.4351    0.0000 O   0  0  0  0  0  0  0  0  0  0  0  0
    4.0800  -16.5457    0.0000 C   0  0  0  0  0  0  0  0  0  0  0  0
    3.2230  -16.1122    0.0000 O   0  0  0  0  0  0  0  0  0  0  0  0
    5.9133  -14.6909    0.0000 C   0  0  0  0  0  0  0  0  0  0  0  0
    5.6894  -13.0144    0.0000 C   0  0  0  0  0  0  0  0  0  0  0  0
    4.8181  -13.3769    0.0000 C   0  0  0  0  0  0  0  0  0  0  0  0
    3.8891  -13.0780    0.0000 C   0  0  0  0  0  0  0  0  0  0  0  0
    5.6317  -12.2337    0.0000 C   0  0  0  0  0  0  0  0  0  0  0  0
    4.9446  -14.3786    0.0000 C   0  0  0  0  0  0  0  0  0  0  0  0
    6.9737  -14.3093    0.0000 O   0  0  0  0  0  0  0  0  0  0  0  0
    4.6787  -11.9270    0.0000 O   0  0  0  0  0  0  0  0  0  0  0  0
    7.3588  -12.8456    0.0000 H   0  0  0  0  0  0  0  0  0  0  0  0
    9.6937  -16.1564    0.0000 O   0  0  0  0  0  0  0  0  0  0  0  0
    8.8094  -17.1068    0.0000 C   0  0  0  0  0  0  0  0  0  0  0  0
    8.4733  -14.5850    0.0000 H   0  0  0  0  0  0  0  0  0  0  0  0
  1  2  1  0     0  0
  2  3  1  0     0  0
  3  4  1  0     0  0
  4  5  1  0     0  0
  5  6  1  0     0  0
  1  6  1  0     0  0
  7  8  1  0     0  0
  8  9  1  0     0  0
  9 10  1  0     0  0
  5  7  1  0     0  0
  6 10  1  0     0  0
 10 11  1  6     0  0
  6 12  1  6     0  0
  1 13  1  0     0  0
  5 14  1  1     0  0
  1 15  1  6     0  0
  2 16  2  0     0  0
  4 17  1  1     0  0
  3 18  2  0     0  0
 18 19  1  0     0  0
  4 20  1  0     0  0
 20 13  1  0     0  0
 13 21  1  0     0  0
 22 23  1  0     0  0
 21 22  1  0     0  0
 21 24  1  1     0  0
 20 25  1  0     0  0
 20 26  1  1     0  0
 24 27  1  0     0  0
 13 28  1  1     0  0
  8 29  1  1     0  0
  8 30  1  0     0  0
 10 31  1  1     0  0
M  END
> <ID>
CHEBI:145066

> <NAME>
stemphyloxin II

$$$$

Ketcher 10091915372D 1   1.00000     0.00000     0

 29 30  0     0  0            999 V2000
   -6.7641   -9.4708    0.0000 C   0  0  0  0  0  0  0  0  0  0  0  0
   -7.6300   -9.9708    0.0000 C   0  0  0  0  0  0  0  0  0  0  0  0
   -7.6300  -10.9707    0.0000 C   0  0  0  0  0  0  0  0  0  0  0  0
   -6.7641  -11.4707    0.0000 C   0  0  0  0  0  0  0  0  0  0  0  0
   -5.8981  -10.9707    0.0000 C   0  0  0  0  0  0  0  0  0  0  0  0
   -5.8981   -9.9708    0.0000 C   0  0  0  0  0  0  0  0  0  0  0  0
   -5.0320  -11.4707    0.0000 C   0  0  0  0  0  0  0  0  0  0  0  0
   -4.1659  -10.9707    0.0000 C   0  0  0  0  0  0  0  0  0  0  0  0
   -4.1659   -9.9708    0.0000 C   0  0  0  0  0  0  0  0  0  0  0  0
   -5.0320   -9.4708    0.0000 C   0  0  0  0  0  0  0  0  0  0  0  0
   -3.8076  -11.9043    0.0000 O   0  0  0  0  0  0  0  0  0  0  0  0
   -3.2000  -10.7120    0.0000 C   0  0  0  0  0  0  0  0  0  0  0  0
   -5.0320   -8.4708    0.0000 C   0  0  0  0  0  0  0  0  0  0  0  0
   -5.8981   -8.9708    0.0000 H   0  0  0  0  0  0  0  0  0  0  0  0
   -8.6083  -10.7629    0.0000 C   0  0  0  0  0  0  0  0  0  0  0  0
   -7.1224   -8.5372    0.0000 C   0  0  0  0  0  0  0  0  0  0  0  0
   -8.1301  -11.8369    0.0000 O   0  0  0  0  0  0  0  0  0  0  0  0
   -5.8981  -11.9707    0.0000 H   0  0  0  0  0  0  0  0  0  0  0  0
   -6.4057   -8.5372    0.0000 C   0  0  0  0  0  0  0  0  0  0  0  0
   -8.4961   -9.4708    0.0000 C   0  0  0  0  0  0  0  0  0  0  0  0
   -9.3621   -9.9708    0.0000 C   0  0  0  0  0  0  0  0  0  0  0  0
  -10.2281   -9.4708    0.0000 C   0  0  0  0  0  0  0  0  0  0  0  0
   -8.4961   -8.4708    0.0000 C   0  0  0  0  0  0  0  0  0  0  0  0
   -6.7641  -12.4707    0.0000 O   0  0  0  0  0  0  0  0  0  0  0  0
   -8.0135   -8.0832    0.0000 O   0  0  0  0  0  0  0  0  0  0  0  0
   -9.3622   -7.9708    0.0000 O   0  0  0  0  0  0  0  0  0  0  0  0
   -6.2564   -8.0372    0.0000 C   0  0  0  0  0  0  0  0  0  0  0  0
   -6.2564   -7.0372    0.0000 C   0  0  0  0  0  0  0  0  0  0  0  0
   -7.1224   -6.5372    0.0000 O   0  0  0  0  0  0  0  0  0  0  0  0
  1  2  1  0     0  0
  2  3  1  0     0  0
  3  4  1  0     0  0
  4  5  1  0     0  0
  5  6  1  0     0  0
  1  6  1  0     0  0
  7  8  1  0     0  0
  8  9  1  0     0  0
  9 10  1  0     0  0
  5  7  1  0     0  0
  6 10  1  0     0  0
  8 11  1  1     0  0
  8 12  1  6     0  0
 10 13  1  6     0  0
  6 14  1  6     0  0
  3 15  1  6     0  0
  1 16  1  6     0  0
  3 17  1  1     0  0
  5 18  1  1     0  0
  1 19  1  1     0  0
 20 21  1  0     0  0
 21 22  1  0     0  0
  2 20  1  6     0  0
 20 23  1  1     0  0
  4 24  2  0     0  0
 16 25  2  0     0  0
 23 26  1  0     0  0
 27 28  2  0     0  0
 28 29  1  0     0  0
 27 16  1  0     0  0
M  END
> <ID>
CHEBI:145070

> <NAME>
stemphyloxin I

$$$$

Ketcher 10181911342D 1   1.00000     0.00000     0

 11 12  0     0  0            999 V2000
    6.8252  -19.5806    0.0000 C   0  0  0  0  0  0  0  0  0  0  0  0
    6.8252  -20.5839    0.0000 C   0  0  0  0  0  0  0  0  0  0  0  0
    7.7835  -20.8834    0.0000 O   0  0  0  0  0  0  0  0  0  0  0  0
    7.7835  -19.2663    0.0000 C   0  0  0  0  0  0  0  0  0  0  0  0
    8.3525  -20.0748    0.0000 C   0  0  0  0  0  0  0  0  0  0  0  0
    5.9718  -19.0865    0.0000 C   0  0  0  0  0  0  0  0  0  0  0  0
    5.9718  -21.0781    0.0000 C   0  0  0  0  0  0  0  0  0  0  0  0
    5.0882  -19.5806    0.0000 O   0  0  0  0  0  0  0  0  0  0  0  0
    9.3558  -20.0748    0.0000 O   0  0  0  0  0  0  0  0  0  0  0  0
    5.0882  -20.5839    0.0000 C   0  0  0  0  0  0  0  0  0  0  0  0
    4.2228  -21.0913    0.0000 O   0  0  0  0  0  0  0  0  0  0  0  0
  2  1  1  0     0  0
  4  1  2  0     0  0
  6  1  1  0     0  0
  3  2  1  0     0  0
  7  2  2  0     0  0
  5  3  1  0     0  0
  5  4  1  0     0  0
  9  5  2  0     0  0
  8  6  1  0     0  0
 10  7  1  0     0  0
 10  8  1  0     0  0
 10 11  1  0     0  0
M  END
> <ID>
CHEBI:145111

> <NAME>
isopatulin

$$$$

Ketcher 11051913392D 1   1.00000     0.00000     0

 10 11  0     0  0            999 V2000
   11.0424   -9.5866    0.0000 O   0  0  0  0  0  0  0  0  0  0  0  0
   12.6295   -8.7801    0.0000 O   0  0  0  0  0  0  0  0  0  0  0  0
   11.0424   -7.9737    0.0000 N   0  0  0  0  0  0  0  0  0  0  0  0
   10.0941   -8.2791    0.0000 C   0  0  0  0  0  0  0  0  0  0  0  0
   10.0941   -9.2812    0.0000 C   0  0  0  0  0  0  0  0  0  0  0  0
    9.2263   -7.7779    0.0000 C   0  0  0  0  0  0  0  0  0  0  0  0
    9.2263   -9.7822    0.0000 C   0  0  0  0  0  0  0  0  0  0  0  0
   11.6273   -8.7801    0.0000 C   0  0  0  0  0  0  0  0  0  0  0  0
    8.3584   -8.2791    0.0000 C   0  0  0  0  0  0  0  0  0  0  0  0
    8.3584   -9.2812    0.0000 C   0  0  0  0  0  0  0  0  0  0  0  0
  1  5  1  0     0  0
  1  8  1  0     0  0
  2  8  2  0     0  0
  3  4  1  0     0  0
  3  8  1  0     0  0
  4  5  1  0     0  0
  4  6  2  0     0  0
  5  7  2  0     0  0
  6  9  1  0     0  0
  7 10  1  0     0  0
  9 10  2  0     0  0
M  END
> <ID>
CHEBI:145233

> <NAME>
2-benzoxazolinone

$$$$

Ketcher 02052012462D 1   1.00000     0.00000     0

 42 47  0     0  0            999 V2000
   10.4397   -7.5568    0.0000 C   0  0  0  0  0  0  0  0  0  0  0  0
   10.4537   -8.5814    0.0000 C   0  0  0  0  0  0  0  0  0  0  0  0
    9.5739   -7.0570    0.0000 C   0  0  0  0  0  0  0  0  0  0  0  0
    9.5739   -9.0561    0.0000 C   0  0  0  0  0  0  0  0  0  0  0  0
    8.7085   -7.5568    0.0000 C   0  0  0  0  0  0  0  0  0  0  0  0
    8.7231   -8.5316    0.0000 C   0  0  0  0  0  0  0  0  0  0  0  0
    7.8428   -7.0570    0.0000 C   0  0  0  0  0  0  0  0  0  0  0  0
    6.9773   -7.5569    0.0000 C   0  0  0  0  0  0  0  0  0  0  0  0
    7.8428   -9.0561    0.0000 C   0  0  0  0  0  0  0  0  0  0  0  0
    6.9773   -8.5564    0.0000 C   0  0  0  0  0  0  0  0  0  0  0  0
   11.3053   -7.0570    0.0000 C   0  0  0  0  0  0  0  0  0  0  0  0
   12.1709   -7.5569    0.0000 C   0  0  0  0  0  0  0  0  0  0  0  0
   11.3051   -9.0561    0.0000 O   0  0  0  0  0  0  0  0  0  0  0  0
   12.1709   -8.5564    0.0000 C   0  0  0  0  0  0  0  0  0  0  0  0
   11.3053   -6.0575    0.0000 O   0  0  0  0  0  0  0  0  0  0  0  0
    9.5740   -6.0575    0.0000 O   0  0  0  0  0  0  0  0  0  0  0  0
    7.8398   -6.0575    0.0000 O   0  0  0  0  0  0  0  0  0  0  0  0
    6.9727   -5.5517    0.0000 C   0  0  0  0  0  0  0  0  0  0  0  0
    6.1056   -9.0682    0.0000 O   0  0  0  0  0  0  0  0  0  0  0  0
   10.4277  -11.5313    0.0000 C   0  0  0  0  0  0  0  0  0  0  0  0
   10.4277  -10.5319    0.0000 C   0  0  0  0  0  0  0  0  0  0  0  0
    9.5620  -12.0312    0.0000 C   0  0  0  0  0  0  0  0  0  0  0  0
    9.5620  -10.0321    0.0000 C   0  0  0  0  0  0  0  0  0  0  0  0
    8.6965  -11.5313    0.0000 C   0  0  0  0  0  0  0  0  0  0  0  0
    8.6965  -10.5319    0.0000 C   0  0  0  0  0  0  0  0  0  0  0  0
    7.8308  -12.0312    0.0000 C   0  0  0  0  0  0  0  0  0  0  0  0
    6.9652  -11.5312    0.0000 C   0  0  0  0  0  0  0  0  0  0  0  0
    7.8308  -10.0321    0.0000 C   0  0  0  0  0  0  0  0  0  0  0  0
    6.9652  -10.5318    0.0000 C   0  0  0  0  0  0  0  0  0  0  0  0
   11.2935  -12.0312    0.0000 C   0  0  0  0  0  0  0  0  0  0  0  0
   12.1589  -11.5312    0.0000 C   0  0  0  0  0  0  0  0  0  0  0  0
   11.2933  -10.0321    0.0000 O   0  0  0  0  0  0  0  0  0  0  0  0
   12.1589  -10.5318    0.0000 C   0  0  0  0  0  0  0  0  0  0  0  0
   11.2935  -13.0306    0.0000 O   0  0  0  0  0  0  0  0  0  0  0  0
    9.5621  -13.0306    0.0000 O   0  0  0  0  0  0  0  0  0  0  0  0
    7.8279  -13.0306    0.0000 O   0  0  0  0  0  0  0  0  0  0  0  0
    6.9446  -13.5364    0.0000 C   0  0  0  0  0  0  0  0  0  0  0  0
    6.0937  -10.0201    0.0000 O   0  0  0  0  0  0  0  0  0  0  0  0
    5.2674   -8.5237    0.0000 C   0  0  0  0  0  0  0  0  0  0  0  0
    5.2281  -10.5198    0.0000 C   0  0  0  0  0  0  0  0  0  0  0  0
   13.0364   -9.0562    0.0000 C   0  0  0  0  0  0  0  0  0  0  0  0
   13.0245  -10.0319    0.0000 C   0  0  0  0  0  0  0  0  0  0  0  0
  3  1  2  0     0  0
  4  2  2  0     0  0
  5  3  1  0     0  0
  6  4  1  0     0  0
  7  5  1  0     0  0
  6  5  2  0     0  0
  8  7  2  0     0  0
  9  6  1  0     0  0
 10  8  1  0     0  0
 10  9  2  0     0  0
 11  1  1  0     0  0
  2  1  1  0     0  0
 12 11  1  0     0  0
 13  2  1  0     0  0
 14 12  2  0     0  0
 14 13  1  0     0  0
 11 15  2  0     0  0
  3 16  1  0     0  0
  7 17  1  0     0  0
 17 18  1  0     0  0
 10 19  1  0     0  0
 22 20  2  0     0  0
 23 21  2  0     0  0
 22 24  1  1     0  0
 23 25  1  1     0  0
 26 24  1  0     0  0
 25 24  2  0     0  0
 27 26  2  0     0  0
 28 25  1  0     0  0
 29 27  1  0     0  0
 29 28  2  0     0  0
 30 20  1  0     0  0
 21 20  1  0     0  0
 31 30  1  0     0  0
 32 21  1  0     0  0
 33 31  2  0     0  0
 33 32  1  0     0  0
 30 34  2  0     0  0
 22 35  1  0     0  0
 26 36  1  0     0  0
 36 37  1  0     0  0
 29 38  1  0     0  0
 19 39  1  0     0  0
 38 40  1  0     0  0
  4 23  1  0     0  0
 14 41  1  0     0  0
 33 42  1  0     0  0
M  END
> <ID>
CHEBI:145950

> <NAME>
nigerone

$$$$

Ketcher 02032012482D 1   1.00000     0.00000     0

 60 66  0     1  0            999 V2000
   15.2566  -83.4489    0.0000 C   0  0  0  0  0  0  0  0  0  0  0  0
   14.4176  -82.9212    0.0000 O   0  0  0  0  0  0  0  0  0  0  0  0
   15.2826  -84.4349    0.0000 C   0  0  0  0  0  0  0  0  0  0  0  0
   13.5785  -83.3970    0.0000 C   0  0  0  0  0  0  0  0  0  0  0  0
   14.4437  -84.9108    0.0000 C   0  0  0  0  0  0  0  0  0  0  0  0
   12.6877  -82.8693    0.0000 C   0  0  0  0  0  0  0  0  0  0  0  0
   13.6046  -84.3831    0.0000 C   0  0  0  0  0  0  0  0  0  0  0  0
   12.7136  -81.8314    0.0000 O   0  0  0  0  0  0  0  0  0  0  0  0
   11.8487  -83.3450    0.0000 C   0  0  0  0  0  0  0  0  0  0  0  0
   12.7136  -84.8588    0.0000 O   0  0  0  0  0  0  0  0  0  0  0  0
   11.0095  -82.8174    0.0000 C   0  0  0  0  0  0  0  0  0  0  0  0
   11.8746  -84.3312    0.0000 C   0  0  0  0  0  0  0  0  0  0  0  0
   11.0355  -84.8069    0.0000 C   0  0  0  0  0  0  0  0  0  0  0  0
   11.0615  -85.7930    0.0000 O   0  0  0  0  0  0  0  0  0  0  0  0
    9.9459  -84.3312    0.0000 C   0  0  0  0  0  0  0  0  0  0  0  0
    8.8558  -84.7551    0.0000 C   0  0  0  0  0  0  0  0  0  0  0  0
    8.0169  -84.2273    0.0000 C   0  0  0  0  0  0  0  0  0  0  0  0
    8.8819  -85.7411    0.0000 C   0  0  0  0  0  0  0  0  0  0  0  0
    7.1778  -84.7030    0.0000 O   0  0  0  0  0  0  0  0  0  0  0  0
    8.0428  -83.1893    0.0000 C   0  0  0  0  0  0  0  0  0  0  0  0
    6.3388  -84.1755    0.0000 C   0  0  0  0  0  0  0  0  0  0  0  0
    7.2038  -82.6617    0.0000 C   0  0  0  0  0  0  0  0  0  0  0  0
    5.4996  -83.6478    0.0000 O   0  0  0  0  0  0  0  0  0  0  0  0
    6.3648  -85.1616    0.0000 C   0  0  0  0  0  0  0  0  0  0  0  0
    6.3648  -83.1375    0.0000 C   0  0  0  0  0  0  0  0  0  0  0  0
    4.6607  -84.1236    0.0000 C   0  0  0  0  0  0  0  0  0  0  0  0
    5.5256  -85.6374    0.0000 C   0  0  0  0  0  0  0  0  0  0  0  0
    7.2729  -85.6286    0.0000 C   0  0  0  0  0  0  0  0  0  0  0  0
    4.6867  -85.1097    0.0000 C   0  0  0  0  0  0  0  0  0  0  0  0
    8.0384  -85.1001    0.0000 H   0  0  0  0  0  0  0  0  0  0  0  0
   13.6151  -82.1625    0.0000 H   0  0  0  0  0  0  0  0  0  0  0  0
   16.8145  -82.9797    0.0000 C   0  0  0  0  0  0  0  0  0  0  0  0
   15.8812  -82.7363    0.0000 O   0  0  0  0  0  0  0  0  0  0  0  0
   16.8145  -84.0540    0.0000 C   0  0  0  0  0  0  0  0  0  0  0  0
   15.8183  -84.3464    0.0000 C   0  0  0  0  0  0  0  0  0  0  0  0
   27.0468  -83.1317    0.0000 O   0  0  0  0  0  0  0  0  0  0  0  0
   26.0949  -83.4800    0.0000 C   0  0  0  0  0  0  0  0  0  0  0  0
   26.0959  -84.4751    0.0000 O   0  0  0  0  0  0  0  0  0  0  0  0
   25.3659  -82.8734    0.0000 C   0  0  0  0  0  0  0  0  0  0  0  0
   24.9113  -82.0227    0.0000 O   0  0  0  0  0  0  0  0  0  0  0  0
   24.4622  -83.3786    0.0000 C   0  0  0  0  0  0  0  0  0  0  0  0
   25.9144  -82.0478    0.0000 C   0  0  0  0  0  0  0  0  0  0  0  0
   23.6352  -82.8821    0.0000 C   0  0  0  0  0  0  0  0  0  0  0  0
   22.7833  -83.3885    0.0000 O   0  0  0  0  0  0  0  0  0  0  0  0
   23.6444  -81.9725    0.0000 C   0  0  0  0  0  0  0  0  0  0  0  0
   21.9563  -82.8920    0.0000 C   0  0  0  0  0  0  0  0  0  0  0  0
   22.8589  -81.4004    0.0000 C   0  0  0  0  0  0  0  0  0  0  0  0
   21.0776  -82.3941    0.0000 O   0  0  0  0  0  0  0  0  0  0  0  0
   21.9563  -83.9302    0.0000 C   0  0  0  0  0  0  0  0  0  0  0  0
   21.9735  -81.9463    0.0000 C   0  0  0  0  0  0  0  0  0  0  0  0
   20.2257  -82.9006    0.0000 C   0  0  0  0  0  0  0  0  0  0  0  0
   21.1044  -84.4368    0.0000 C   0  0  0  0  0  0  0  0  0  0  0  0
   21.1282  -81.4089    0.0000 O   0  0  0  0  0  0  0  0  0  0  0  0
   19.3987  -82.4040    0.0000 C   0  0  0  0  0  0  0  0  0  0  0  0
   20.2257  -83.9390    0.0000 C   0  0  0  0  0  0  0  0  0  0  0  0
   21.1058  -85.5427    0.0000 C   0  0  0  0  0  0  0  0  0  0  0  0
   18.5452  -82.9712    0.0000 C   0  0  0  0  0  0  0  0  0  0  0  0
   19.4483  -81.4621    0.0000 C   0  0  0  0  0  0  0  0  0  0  0  0
   17.6665  -82.4732    0.0000 C   0  0  0  0  0  0  0  0  0  0  0  0
   20.3305  -82.0359    0.0000 H   0  0  0  0  0  0  0  0  0  0  0  0
  1  2  1  0     0  0
  1  3  1  0     0  0
  2  4  1  0     0  0
  3  5  1  0     0  0
  4  6  1  0     0  0
  4  7  1  0     0  0
  6  8  1  1     0  0
  6  9  1  0     0  0
  7 10  1  1     0  0
  9 11  2  0     0  0
  9 12  1  0     0  0
 12 13  1  0     0  0
 13 14  1  1     0  0
 13 15  1  0     0  0
 15 16  1  0     0  0
 16 17  1  0     0  0
 16 18  1  6     0  0
 17 19  1  0     0  0
 17 20  1  0     0  0
 21 19  1  6     0  0
 20 22  1  0     0  0
 21 23  1  0     0  0
 21 24  1  0     0  0
 21 25  1  1     0  0
 23 26  1  0     0  0
 24 27  1  0     0  0
 24 28  1  6     0  0
 26 29  1  0     0  0
  5  7  1  0     0  0
 12 10  1  6     0  0
 22 25  1  0     0  0
 27 29  1  0     0  0
 17 30  1  6     0  0
  4 31  1  1     0  0
 32 33  1  0     0  0
 32 34  1  0     0  0
  1 33  1  1     0  0
 34 35  1  0     0  0
  1 35  1  6     0  0
 36 37  2  0     0  0
 37 38  1  0     0  0
 37 39  1  0     0  0
 39 40  1  1     0  0
 39 41  1  0     0  0
 39 42  1  6     0  0
 43 41  1  1     0  0
 43 44  1  0     0  0
 43 45  1  0     0  0
 46 44  1  0     0  0
 45 47  1  0     0  0
 46 48  1  6     0  0
 46 49  1  1     0  0
 46 50  1  0     0  0
 51 48  1  0     0  0
 49 52  2  0     0  0
 50 53  1  6     0  0
 51 54  1  0     0  0
 51 55  1  0     0  0
 52 56  1  0     0  0
 54 57  1  0     0  0
 54 58  1  1     0  0
 57 59  2  0     0  0
 32 59  1  1     0  0
 47 50  1  0     0  0
 52 55  1  0     0  0
 51 60  1  6     0  0
M  END
> <ID>
CHEBI:145981

> <NAME>
dinophysistoxin 2

$$$$

Ketcher 02062011562D 1   1.00000     0.00000     0

 48 53  0     1  0            999 V2000
    9.6777  -10.7614    0.0000 C   0  0  0  0  0  0  0  0  0  0  0  0
    9.6777  -11.7610    0.0000 C   0  0  0  0  0  0  0  0  0  0  0  0
    8.8118  -10.2616    0.0000 C   0  0  0  0  0  0  0  0  0  0  0  0
    8.8118  -12.2608    0.0000 C   0  0  0  0  0  0  0  0  0  0  0  0
    7.9463  -10.7614    0.0000 C   0  0  0  0  0  0  0  0  0  0  0  0
    7.9463  -11.7610    0.0000 C   0  0  0  0  0  0  0  0  0  0  0  0
    7.0807  -10.2616    0.0000 C   0  0  0  0  0  0  0  0  0  0  0  0
    6.2150  -10.7615    0.0000 C   0  0  0  0  0  0  0  0  0  0  0  0
    7.0807  -12.2608    0.0000 C   0  0  0  0  0  0  0  0  0  0  0  0
    6.2150  -11.7611    0.0000 C   0  0  0  0  0  0  0  0  0  0  0  0
   10.5433  -10.2616    0.0000 C   0  0  0  0  0  0  0  0  0  0  0  0
   11.4088  -10.7615    0.0000 O   0  0  0  0  0  0  0  0  0  0  0  0
   10.5432  -12.2608    0.0000 C   0  0  0  0  0  0  0  0  0  0  0  0
   11.4088  -11.7611    0.0000 C   0  0  0  0  0  0  0  0  0  0  0  0
   10.5433   -9.2620    0.0000 O   0  0  0  0  0  0  0  0  0  0  0  0
    8.8118   -9.2620    0.0000 O   0  0  0  0  0  0  0  0  0  0  0  0
    7.0777   -9.2620    0.0000 O   0  0  0  0  0  0  0  0  0  0  0  0
    5.3433  -12.2729    0.0000 O   0  0  0  0  0  0  0  0  0  0  0  0
   12.2747  -12.2609    0.0000 C   0  0  0  0  0  0  0  0  0  0  0  0
   13.1402  -11.7611    0.0000 C   0  0  0  0  0  0  0  0  0  0  0  0
   14.0059  -12.2609    0.0000 O   0  0  0  0  0  0  0  0  0  0  0  0
   14.8716  -11.7611    0.0000 C   0  0  0  0  0  0  0  0  0  0  0  0
   13.1402  -10.7615    0.0000 O   0  0  0  0  0  0  0  0  0  0  0  0
    7.0807  -13.2604    0.0000 C   0  0  0  0  0  0  0  0  0  0  0  0
    9.6777  -14.7597    0.0000 C   0  0  0  0  0  0  0  0  0  0  0  0
    9.6777  -13.7601    0.0000 C   0  0  0  0  0  0  0  0  0  0  0  0
    8.8118  -15.2595    0.0000 C   0  0  0  0  0  0  0  0  0  0  0  0
    8.8118  -13.2604    0.0000 C   0  0  0  0  0  0  0  0  0  0  0  0
    7.9463  -14.7597    0.0000 C   0  0  0  0  0  0  0  0  0  0  0  0
    7.9463  -13.7601    0.0000 C   0  0  0  0  0  0  0  0  0  0  0  0
    7.0807  -15.2595    0.0000 C   0  0  0  0  0  0  0  0  0  0  0  0
    6.2151  -14.7596    0.0000 C   0  0  0  0  0  0  0  0  0  0  0  0
    6.2151  -13.7600    0.0000 C   0  0  0  0  0  0  0  0  0  0  0  0
   10.5433  -15.2595    0.0000 C   0  0  0  0  0  0  0  0  0  0  0  0
   11.4090  -14.7596    0.0000 O   0  0  0  0  0  0  0  0  0  0  0  0
   10.5433  -13.2604    0.0000 C   0  0  0  0  0  0  0  0  0  0  0  0
   11.4090  -13.7600    0.0000 C   0  0  0  0  0  0  0  0  0  0  0  0
   10.5433  -16.2591    0.0000 O   0  0  0  0  0  0  0  0  0  0  0  0
    8.8120  -16.2591    0.0000 O   0  0  0  0  0  0  0  0  0  0  0  0
    7.0777  -16.2591    0.0000 O   0  0  0  0  0  0  0  0  0  0  0  0
    5.3435  -13.2483    0.0000 O   0  0  0  0  0  0  0  0  0  0  0  0
   12.2747  -13.2602    0.0000 C   0  0  0  0  0  0  0  0  0  0  0  0
   13.1402  -13.7600    0.0000 C   0  0  0  0  0  0  0  0  0  0  0  0
   14.0061  -13.2602    0.0000 O   0  0  0  0  0  0  0  0  0  0  0  0
   14.8716  -13.7600    0.0000 C   0  0  0  0  0  0  0  0  0  0  0  0
   13.1402  -14.7596    0.0000 O   0  0  0  0  0  0  0  0  0  0  0  0
    4.4741  -11.7793    0.0000 C   0  0  0  0  0  0  0  0  0  0  0  0
    4.4760  -13.7450    0.0000 C   0  0  0  0  0  0  0  0  0  0  0  0
  3  1  1  0     0  0
  4  2  1  0     0  0
  5  3  2  0     0  0
  6  4  2  0     0  0
  7  5  1  1     0  0
  6  5  1  0     0  0
  8  7  2  0     0  0
  9  6  1  1     0  0
 10  8  1  0     0  0
 10  9  2  0     0  0
 11  1  1  0     0  0
  2  1  2  0     0  0
 12 11  1  0     0  0
 13  2  1  0     0  0
 14 12  1  0     0  0
 14 13  1  0     0  0
 11 15  2  0     0  0
  3 16  1  0     0  0
  7 17  1  0     0  0
 10 18  1  0     0  0
 19 20  1  0     0  0
 20 21  1  0     0  0
 21 22  1  0     0  0
 14 19  1  6     0  0
 20 23  2  0     0  0
  9 24  1  0     0  0
 27 25  1  0     0  0
 28 26  1  0     0  0
 29 27  2  0     0  0
 30 28  2  0     0  0
 31 29  1  0     0  0
 30 29  1  0     0  0
 32 31  2  0     0  0
 33 32  1  0     0  0
 34 25  1  0     0  0
 26 25  2  0     0  0
 35 34  1  0     0  0
 36 26  1  0     0  0
 37 35  1  0     0  0
 37 36  1  0     0  0
 34 38  2  0     0  0
 27 39  1  0     0  0
 31 40  1  0     0  0
 33 41  1  0     0  0
 42 43  1  0     0  0
 43 44  1  0     0  0
 44 45  1  0     0  0
 37 42  1  1     0  0
 43 46  2  0     0  0
 24 30  1  0     0  0
 33 24  2  0     0  0
 18 47  1  0     0  0
 41 48  1  0     0  0
M  END
> <ID>
CHEBI:146007

> <NAME>
(M)-viriditoxin

$$$$

Ketcher 04222018452D 1   1.00000     0.00000     0

 12 12  0     0  0            999 V2000
    4.2690    1.0000    0.0000 O   0  0  0  0  0  0  0  0  0  0  0  0
    4.2690   -2.0000    0.0000 O   0  0  0  0  0  0  0  0  0  0  0  0
    2.5369   -1.0000    0.0000 O   0  0  0  0  0  0  0  0  0  0  0  0
    6.0010    1.0000    0.0000 O   0  0  0  0  0  0  0  0  0  0  0  0
    2.5369    2.0000    0.0000 O   0  0  0  0  0  0  0  0  0  0  0  0
    6.0010   -1.0000    0.0000 N   0  0  0  0  0  0  0  0  0  0  0  0
    4.2690   -1.0000    0.0000 C   0  0  0  0  0  0  0  0  0  0  0  0
    3.4030   -0.5000    0.0000 C   0  0  0  0  0  0  0  0  0  0  0  0
    5.1350   -0.5000    0.0000 C   0  0  0  0  0  0  0  0  0  0  0  0
    3.4030    0.5000    0.0000 C   0  0  0  0  0  0  0  0  0  0  0  0
    5.1350    0.5000    0.0000 C   0  0  0  0  0  0  0  0  0  0  0  0
    2.5369    1.0000    0.0000 C   0  0  0  0  0  0  0  0  0  0  0  0
  1 10  1  0     0  0
  1 11  1  0     0  0
  7  2  1  1     0  0
  8  3  1  1     0  0
 11  4  1  6     0  0
  5 12  1  0     0  0
  9  6  1  6     0  0
  7  8  1  0     0  0
  7  9  1  0     0  0
  8 10  1  0     0  0
  9 11  1  0     0  0
 10 12  1  1     0  0
M  END
> <ID>
CHEBI:148869

> <NAME>
alpha-D-galactosamine

$$$$

Ketcher 08132011512D 1   1.00000     0.00000     0

 27 31  0     1  0            999 V2000
   13.5050  -24.2909    0.0000 C   0  0  0  0  0  0  0  0  0  0  0  0
   13.3272  -23.3117    0.0000 C   0  0  0  0  0  0  0  0  0  0  0  0
   12.3410  -23.1782    0.0000 C   0  0  0  0  0  0  0  0  0  0  0  0
   11.9094  -22.2815    0.0000 C   0  0  0  0  0  0  0  0  0  0  0  0
   10.9390  -22.0601    0.0000 N   0  0  0  0  0  0  0  0  0  0  0  0
   10.1610  -22.6806    0.0000 C   0  0  0  0  0  0  0  0  0  0  0  0
   10.1610  -23.6758    0.0000 C   0  0  0  0  0  0  0  0  0  0  0  0
    9.2992  -24.1734    0.0000 C   0  0  0  0  0  0  0  0  0  0  0  0
    8.4373  -23.6758    0.0000 C   0  0  0  0  0  0  0  0  0  0  0  0
    8.4373  -22.6805    0.0000 C   0  0  0  0  0  0  0  0  0  0  0  0
    9.2991  -22.1829    0.0000 C   0  0  0  0  0  0  0  0  0  0  0  0
    9.2991  -21.1878    0.0000 O   0  0  0  0  0  0  0  0  0  0  0  0
   10.9391  -24.2963    0.0000 C   0  0  0  0  0  0  0  0  0  0  0  0
   10.7177  -25.2665    0.0000 O   0  0  0  0  0  0  0  0  0  0  0  0
   11.9094  -24.0747    0.0000 N   0  0  0  0  0  0  0  0  0  0  0  0
   12.6286  -24.7625    0.0000 C   0  0  0  0  0  0  0  0  0  0  0  0
   12.5298  -21.5034    0.0000 C   0  0  0  0  0  0  0  0  0  0  0  0
   12.2649  -20.5441    0.0000 C   0  0  0  0  0  0  0  0  0  0  0  0
   13.0956  -19.9958    0.0000 N   0  0  0  0  0  0  0  0  0  0  0  0
   13.8736  -20.6164    0.0000 C   0  0  0  0  0  0  0  0  0  0  0  0
   14.8554  -20.4532    0.0000 C   0  0  0  0  0  0  0  0  0  0  0  0
   15.4876  -21.2220    0.0000 C   0  0  0  0  0  0  0  0  0  0  0  0
   15.1377  -22.1538    0.0000 C   0  0  0  0  0  0  0  0  0  0  0  0
   14.1560  -22.3168    0.0000 C   0  0  0  0  0  0  0  0  0  0  0  0
   13.5240  -21.5480    0.0000 C   0  0  0  0  0  0  0  0  0  0  0  0
   13.0636  -22.4478    0.0000 H   0  0  0  0  0  0  0  0  0  0  0  0
   11.6905  -21.1914    0.0000 H   0  0  0  0  0  0  0  0  0  0  0  0
  1  2  1  0     0  0
  3  2  1  0     0  0
  3  4  1  0     0  0
  4  5  1  0     0  0
  5  6  1  0     0  0
  6  7  2  0     0  0
  7  8  1  0     0  0
  8  9  2  0     0  0
  9 10  1  0     0  0
 10 11  2  0     0  0
 11  6  1  0     0  0
 11 12  1  0     0  0
  7 13  1  0     0  0
 13 14  2  0     0  0
 13 15  1  0     0  0
 15  3  1  0     0  0
 15 16  1  0     0  0
 16  1  1  0     0  0
  4 17  1  0     0  0
 17 18  2  0     0  0
 18 19  1  0     0  0
 19 20  1  0     0  0
 20 21  2  0     0  0
 21 22  1  0     0  0
 22 23  2  0     0  0
 23 24  1  0     0  0
 24 25  2  0     0  0
 25 20  1  0     0  0
 25 17  1  0     0  0
  3 26  1  1     0  0
  4 27  1  6     0  0
M  END
> <ID>
CHEBI:156292

> <NAME>
tilivalline

$$$$

Ketcher 08132011382D 1   1.00000     0.00000     0

 18 20  0     1  0            999 V2000
   11.6503  -19.7792    0.0000 C   0  0  0  0  0  0  0  0  0  0  0  0
   11.4719  -18.7958    0.0000 C   0  0  0  0  0  0  0  0  0  0  0  0
   10.4813  -18.6616    0.0000 C   0  0  0  0  0  0  0  0  0  0  0  0
   10.0476  -17.7611    0.0000 C   0  0  0  0  0  0  0  0  0  0  0  0
    9.0731  -17.5386    0.0000 N   0  0  0  0  0  0  0  0  0  0  0  0
    8.2918  -18.1620    0.0000 C   0  0  0  0  0  0  0  0  0  0  0  0
    8.2918  -19.1614    0.0000 C   0  0  0  0  0  0  0  0  0  0  0  0
    7.4262  -19.6612    0.0000 C   0  0  0  0  0  0  0  0  0  0  0  0
    6.5605  -19.1616    0.0000 C   0  0  0  0  0  0  0  0  0  0  0  0
    6.5604  -18.1619    0.0000 C   0  0  0  0  0  0  0  0  0  0  0  0
    7.4260  -17.6621    0.0000 C   0  0  0  0  0  0  0  0  0  0  0  0
    7.4260  -16.6625    0.0000 O   0  0  0  0  0  0  0  0  0  0  0  0
    9.0732  -19.7847    0.0000 C   0  0  0  0  0  0  0  0  0  0  0  0
    8.8508  -20.7591    0.0000 O   0  0  0  0  0  0  0  0  0  0  0  0
   10.0478  -19.5621    0.0000 N   0  0  0  0  0  0  0  0  0  0  0  0
   10.7701  -20.2529    0.0000 C   0  0  0  0  0  0  0  0  0  0  0  0
   10.6710  -16.9796    0.0000 O   0  0  0  0  0  0  0  0  0  0  0  0
   11.1447  -17.9022    0.0000 H   0  0  0  0  0  0  0  0  0  0  0  0
  1  2  1  0     0  0
  3  2  1  0     0  0
  3  4  1  0     0  0
  4  5  1  0     0  0
  5  6  1  0     0  0
  6  7  2  0     0  0
  7  8  1  0     0  0
  8  9  2  0     0  0
  9 10  1  0     0  0
 10 11  2  0     0  0
 11  6  1  0     0  0
 11 12  1  0     0  0
  7 13  1  0     0  0
 13 14  2  0     0  0
 13 15  1  0     0  0
 15  3  1  0     0  0
 15 16  1  0     0  0
 16  1  1  0     0  0
  4 17  1  0     0  0
  3 18  1  1     0  0
M  END
> <ID>
CHEBI:156293

> <NAME>
tilimycin

$$$$

Ketcher 05172110312D 1   1.00000     0.00000     0

 12 12  0     0  0            999 V2000
   11.4867   -6.3518    0.0000 C   0  0  0  0  0  0  0  0  0  0  0  0
   12.3527   -5.8518    0.0000 C   0  0  0  0  0  0  0  0  0  0  0  0
   13.2187   -6.3518    0.0000 C   0  0  0  0  0  0  0  0  0  0  0  0
   13.2187   -7.3518    0.0000 C   0  0  0  0  0  0  0  0  0  0  0  0
   14.0847   -5.8517    0.0000 C   0  0  0  0  0  0  0  0  0  0  0  0
   14.0847   -4.8517    0.0000 C   0  0  0  0  0  0  0  0  0  0  0  0
   14.9507   -4.3517    0.0000 C   0  0  0  0  0  0  0  0  0  0  0  0
   15.8167   -4.8517    0.0000 C   0  0  0  0  0  0  0  0  0  0  0  0
   16.6828   -4.3517    0.0000 C   0  0  0  0  0  0  0  0  0  0  0  0
   15.8167   -5.8517    0.0000 C   0  0  0  0  0  0  0  0  0  0  0  0
   16.6828   -6.3517    0.0000 O   0  0  0  0  0  0  0  0  0  0  0  0
   14.9507   -6.3517    0.0000 O   0  0  0  0  0  0  0  0  0  0  0  0
  1  2  1  0     0  0
  2  3  2  0     0  0
  3  4  1  0     0  0
  3  5  1  0     0  0
  5  6  2  0     0  0
  6  7  1  0     0  0
  7  8  2  0     0  0
  8  9  1  0     0  0
  8 10  1  0     0  0
 10 11  2  0     0  0
 10 12  1  0     0  0
 12  5  1  0     0  0
M  END
> <ID>
CHEBI:156363

> <NAME>
gibepyrone A

$$$$

Ketcher 11182009202D 1   1.00000     0.00000     0

 20 20  0     1  0            999 V2000
   10.6793   -6.8897    0.0000 O   0  0  0  0  0  0  0  0  0  0  0  0
    9.8135   -7.3939    0.0000 C   0  0  0  0  0  0  0  0  0  0  0  0
    8.9431   -6.8946    0.0000 O   0  0  0  0  0  0  0  0  0  0  0  0
    9.8135   -8.3887    0.0000 C   0  0  0  0  0  0  0  0  0  0  0  0
   10.6840   -8.8880    0.0000 N   0  0  0  0  0  0  0  0  0  0  0  0
   11.5497   -8.3838    0.0000 C   0  0  0  0  0  0  0  0  0  0  0  0
   11.5497   -7.3888    0.0000 O   0  0  0  0  0  0  0  0  0  0  0  0
   12.4153   -8.8749    0.0000 C   0  0  0  0  0  0  0  0  0  0  0  0
   12.4201   -9.8783    0.0000 N   0  0  0  0  0  0  0  0  0  0  0  0
   13.2792   -8.3772    0.0000 C   0  0  0  0  0  0  0  0  0  0  0  0
   14.1515   -8.8698    0.0000 C   0  0  0  0  0  0  0  0  0  0  0  0
    8.9478   -8.8933    0.0000 C   0  0  0  0  0  0  0  0  0  0  0  0
    8.9526   -9.8968    0.0000 O   0  0  0  0  0  0  0  0  0  0  0  0
    8.0837   -8.3957    0.0000 C   0  0  0  0  0  0  0  0  0  0  0  0
   15.0154   -8.3722    0.0000 C   0  0  0  0  0  0  0  0  0  0  0  0
   16.3856   -8.7337    0.0000 N   0  0  0  0  0  0  0  0  0  0  0  0
   15.5214   -9.2313    0.0000 C   0  0  0  0  0  0  0  0  0  0  0  0
   15.8811   -7.8679    0.0000 C   0  0  0  0  0  0  0  0  0  0  0  0
   16.1369   -6.8986    0.0000 O   0  0  0  0  0  0  0  0  0  0  0  0
   14.5112   -7.5065    0.0000 O   0  0  0  0  0  0  0  0  0  0  0  0
  1  2  2  0     0  0
  2  3  1  0     0  0
  4  2  1  1     0  0
  4  5  1  0     0  0
  5  6  1  0     0  0
  6  7  2  0     0  0
  6  8  1  0     0  0
  8  9  1  6     0  0
  8 10  1  0     0  0
 10 11  1  0     0  0
  4 12  1  0     0  0
 12 13  1  6     0  0
 12 14  1  0     0  0
 11 15  1  0     0  0
 15 17  1  0     0  0
 15 18  1  0     0  0
 16 18  1  0     0  0
 16 17  1  0     0  0
 18 19  2  0     0  0
 15 20  1  6     0  0
M  END
> <ID>
CHEBI:156429

> <NAME>
tabtoxin

$$$$

Ketcher 11192015352D 1   1.00000     0.00000     0

 20 23  0     1  0            999 V2000
   11.9115  -12.1957    0.0000 C   0  0  0  0  0  0  0  0  0  0  0  0
   12.3127  -11.4526    0.0000 O   0  0  0  0  0  0  0  0  0  0  0  0
   13.0253  -12.1816    0.0000 C   0  0  0  0  0  0  0  0  0  0  0  0
   12.2170  -12.6413    0.0000 C   0  0  0  0  0  0  0  0  0  0  0  0
   13.0294  -11.2416    0.0000 C   0  0  0  0  0  0  0  0  0  0  0  0
   11.4117  -12.1733    0.0000 C   0  0  0  0  0  0  0  0  0  0  0  0
   13.9826  -12.6463    0.0000 C   0  0  0  0  0  0  0  0  0  0  0  0
   12.2090  -13.5689    0.0000 C   0  0  0  0  0  0  0  0  0  0  0  0
   12.2254  -10.7690    0.0000 O   0  0  0  0  0  0  0  0  0  0  0  0
   13.9611  -11.2416    0.0000 C   0  0  0  0  0  0  0  0  0  0  0  0
   11.4158  -11.2334    0.0000 C   0  0  0  0  0  0  0  0  0  0  0  0
   10.6071  -12.6372    0.0000 C   0  0  0  0  0  0  0  0  0  0  0  0
   11.4348  -13.1311    0.0000 C   0  0  0  0  0  0  0  0  0  0  0  0
   14.6270  -10.5756    0.0000 O   0  0  0  0  0  0  0  0  0  0  0  0
   10.6071  -10.7648    0.0000 C   0  0  0  0  0  0  0  0  0  0  0  0
    9.7992  -12.1733    0.0000 C   0  0  0  0  0  0  0  0  0  0  0  0
    9.7992  -11.2334    0.0000 C   0  0  0  0  0  0  0  0  0  0  0  0
    8.9856  -10.7648    0.0000 C   0  0  0  0  0  0  0  0  0  0  0  0
   13.0211  -10.3009    0.0000 H   0  0  0  0  0  0  0  0  0  0  0  0
   11.4075  -10.2967    0.0000 H   0  0  0  0  0  0  0  0  0  0  0  0
  1  2  1  0     0  0
  3  4  1  0     0  0
  3  5  1  0     0  0
  3  2  1  1     0  0
  4  6  1  0     0  0
  4  7  1  0     0  0
  4  8  1  1     0  0
  5  9  1  0     0  0
  5 10  1  0     0  0
  6 11  1  0     0  0
  6 12  1  0     0  0
  6 13  1  6     0  0
 10 14  1  6     0  0
 11 15  1  0     0  0
 12 16  1  0     0  0
 15 17  2  0     0  0
 17 18  1  0     0  0
  7 10  1  0     0  0
  9 11  1  0     0  0
 16 17  1  0     0  0
  5 19  1  1     0  0
 11 20  1  6     0  0
  3  1  1  0     0  0
M  END
> <ID>
CHEBI:157603

> <NAME>
isotrichodermol

$$$$

  Ketcher 04041717022D 1   1.00000     0.00000     0

  0  0  0     0  0            999 V2000
M  END> <ID>
CHEBI:167605

> <NAME>
1,8-dihydroxynaphthalene-melanin

$$$$

ACD/Labs08172111572D

 17 17  0  0  1  0  0  0  0  0  1 V2000
   16.5898  -12.1078    0.0000 C   0  0  0  0  0  0  0  0  0  0  0  0
   16.5898  -13.4378    0.0000 C   0  0  0  0  0  0  0  0  0  0  0  0
   15.4380  -11.4428    0.0000 C   0  0  0  0  0  0  0  0  0  0  0  0
   15.4380  -14.1028    0.0000 C   0  0  0  0  0  0  0  0  0  0  0  0
   14.2861  -12.1078    0.0000 C   0  0  0  0  0  0  0  0  0  0  0  0
   14.2861  -13.4378    0.0000 C   0  0  0  0  0  0  0  0  0  0  0  0
   13.1343  -14.1028    0.0000 O   0  0  0  0  0  0  0  0  0  0  0  0
   16.1030  -10.2910    0.0000 C   0  0  0  0  0  0  0  0  0  0  0  0
   14.7730  -10.2910    0.0000 C   0  0  0  0  0  0  0  0  0  0  0  0
   17.9199  -13.4378    0.0000 C   0  0  0  0  0  0  0  0  0  0  0  0
   17.2549  -14.5897    0.0000 O   0  0  0  0  0  0  0  0  0  0  0  0
   17.7417  -11.4428    0.0000 C   0  0  0  0  0  0  0  0  0  0  0  0
   18.8935  -10.7778    0.0000 C   0  0  0  0  0  0  0  0  0  0  0  0
   20.0453  -11.4428    0.0000 C   0  0  0  0  0  0  0  0  0  0  0  0
   21.1971  -10.7778    0.0000 C   0  0  0  0  0  0  0  0  0  0  0  0
   20.0453  -12.7728    0.0000 O   0  0  0  0  0  0  0  0  0  0  0  0
   18.8935   -9.4478    0.0000 H   0  0  0  0  0  0  0  0  0  0  0  0
  1  2  1  0  0  0  0
  1  3  1  0  0  0  0
  2  4  1  0  0  0  0
  3  5  1  0  0  0  0
  4  6  1  0  0  0  0
  5  6  1  0  0  0  0
  6  7  1  1  0  0  0
  3  8  1  0  0  0  0
  3  9  1  0  0  0  0
  2 10  1  1  0  0  0
  2 11  1  6  0  0  0
  1 12  2  0  0  0  0
 12 13  2  0  0  0  0
 13 14  1  1  0  0  0
 14 15  1  0  0  0  0
 14 16  2  0  0  0  0
 13 17  1  6  0  0  0
M  END
> <ID>
CHEBI:177873

> <NAME>
grasshopper ketone

$$$$

Ketcher 11052112352D 1   1.00000     0.00000     0

 20 21  0     1  0            999 V2000
   11.9788   -6.4002    0.0000 C   0  0  0  0  0  0  0  0  0  0  0  0
   11.9788   -5.4003    0.0000 C   0  0  0  0  0  0  0  0  0  0  0  0
   12.8447   -6.9002    0.0000 C   0  0  0  0  0  0  0  0  0  0  0  0
   11.1127   -6.9002    0.0000 C   0  0  0  0  0  0  0  0  0  0  0  0
   11.9788   -7.4002    0.0000 C   0  0  0  0  0  0  0  0  0  0  0  0
   11.1127   -4.9003    0.0000 C   0  0  0  0  0  0  0  0  0  0  0  0
   12.8447   -4.9003    0.0000 C   0  0  0  0  0  0  0  0  0  0  0  0
   13.7108   -6.4002    0.0000 C   0  0  0  0  0  0  0  0  0  0  0  0
   10.2467   -6.4002    0.0000 C   0  0  0  0  0  0  0  0  0  0  0  0
   11.1127   -7.9003    0.0000 C   0  0  0  0  0  0  0  0  0  0  0  0
   10.2467   -5.4003    0.0000 C   0  0  0  0  0  0  0  0  0  0  0  0
   11.1127   -3.9002    0.0000 O   0  0  0  0  0  0  0  0  0  0  0  0
   13.7108   -5.4003    0.0000 C   0  0  0  0  0  0  0  0  0  0  0  0
   14.5768   -6.9002    0.0000 C   0  0  0  0  0  0  0  0  0  0  0  0
    9.3807   -6.9002    0.0000 O   0  0  0  0  0  0  0  0  0  0  0  0
   15.4428   -6.4002    0.0000 C   0  0  0  0  0  0  0  0  0  0  0  0
   14.5768   -7.9003    0.0000 C   0  0  0  0  0  0  0  0  0  0  0  0
    8.5146   -6.4002    0.0000 C   0  0  0  0  0  0  0  0  0  0  0  0
    8.5146   -5.4002    0.0000 O   0  0  0  0  0  0  0  0  0  0  0  0
    7.6485   -6.9002    0.0000 C   0  0  0  0  0  0  0  0  0  0  0  0
  1  2  1  0     0  0
  1  3  1  0     0  0
  1  4  1  0     0  0
  1  5  1  1     0  0
  2  6  1  0     0  0
  2  7  2  0     0  0
  3  8  1  0     0  0
  4  9  1  0     0  0
  4 10  1  6     0  0
  6 11  1  0     0  0
  6 12  1  1     0  0
  7 13  1  0     0  0
  8 14  1  1     0  0
  9 15  1  6     0  0
 14 16  2  0     0  0
 14 17  1  0     0  0
  8 13  1  0     0  0
  9 11  1  0     0  0
 15 18  1  0     0  0
 18 19  2  0     0  0
 18 20  1  0     0  0
M  END
> <ID>
CHEBI:183320

> <NAME>
capsidiol 3-acetate

$$$$

ACD/Labs12132214482D

 25 29  0  0  1  0  0  0  0  0  1 V2000
   21.5239   -8.7082    0.0000 O   0  0  0  0  0  0  0  0  0  0  0  0
   19.4772  -10.1952    0.0000 O   0  0  0  0  0  0  0  0  0  0  0  0
   17.0605   -6.4592    0.0000 O   0  0  0  0  0  0  0  0  0  0  0  0
   14.7569  -10.4492    0.0000 O   0  0  0  0  0  0  0  0  0  0  0  0
   13.6051   -8.4542    0.0000 O   0  0  0  0  0  0  0  0  0  0  0  0
   12.4533   -6.4592    0.0000 O   0  0  0  0  0  0  0  0  0  0  0  0
   19.4772   -8.0432    0.0000 C   0  0  0  0  0  0  0  0  0  0  0  0
   20.2590   -9.1192    0.0000 C   0  0  0  0  0  0  0  0  0  0  0  0
   20.2590   -6.9672    0.0000 C   0  0  0  0  0  0  0  0  0  0  0  0
   18.2123   -8.4542    0.0000 C   0  0  0  0  0  0  0  0  0  0  0  0
   21.5239   -7.3782    0.0000 C   0  0  0  0  0  0  0  0  0  0  0  0
   18.2123   -9.7842    0.0000 C   0  0  0  0  0  0  0  0  0  0  0  0
   17.0605   -7.7892    0.0000 C   0  0  0  0  0  0  0  0  0  0  0  0
   15.9087   -8.4542    0.0000 C   0  0  0  0  0  0  0  0  0  0  0  0
   17.0605  -10.4492    0.0000 C   0  0  0  0  0  0  0  0  0  0  0  0
   15.9087   -9.7842    0.0000 C   0  0  0  0  0  0  0  0  0  0  0  0
   14.7569   -7.7892    0.0000 C   0  0  0  0  0  0  0  0  0  0  0  0
   14.7569   -6.4592    0.0000 C   0  0  0  0  0  0  0  0  0  0  0  0
   15.9087   -5.7942    0.0000 C   0  0  0  0  0  0  0  0  0  0  0  0
   13.6051   -5.7942    0.0000 C   0  0  0  0  0  0  0  0  0  0  0  0
   15.9087   -4.4642    0.0000 C   0  0  0  0  0  0  0  0  0  0  0  0
   13.6051   -4.4642    0.0000 C   0  0  0  0  0  0  0  0  0  0  0  0
   14.7569   -3.7992    0.0000 C   0  0  0  0  0  0  0  0  0  0  0  0
   18.6955   -6.9672    0.0000 H   0  0  0  0  0  0  0  0  0  0  0  0
   21.0407  -10.1952    0.0000 H   0  0  0  0  0  0  0  0  0  0  0  0
  1  8  1  0  0  0  0
  1 11  1  0  0  0  0
  2  8  1  0  0  0  0
  2 12  1  0  0  0  0
  3 13  1  0  0  0  0
  3 19  1  0  0  0  0
  4 16  1  0  0  0  0
  5 17  2  0  0  0  0
  6 20  1  0  0  0  0
  7  8  1  0  0  0  0
  7  9  1  0  0  0  0
  7 10  1  0  0  0  0
  7 24  1  1  0  0  0
  8 25  1  1  0  0  0
  9 11  1  0  0  0  0
 10 12  2  0  0  0  0
 10 13  1  0  0  0  0
 12 15  1  0  0  0  0
 13 14  2  0  0  0  0
 14 16  1  0  0  0  0
 14 17  1  0  0  0  0
 15 16  2  0  0  0  0
 17 18  1  0  0  0  0
 18 19  1  0  0  0  0
 18 20  2  0  0  0  0
 19 21  2  0  0  0  0
 20 22  1  0  0  0  0
 21 23  1  0  0  0  0
 22 23  2  0  0  0  0
M  END
> <ID>
CHEBI:190744

> <NAME>
dihydrodemethylsterigmatocystin

$$$$

Marvin  06190610572D          

 17 18  0  0  0  0            999 V2000
    0.3126   -0.2836    0.0000 C   0  0  0  0  0  0  0  0  0  0  0  0
   -0.4019    0.1289    0.0000 C   0  0  0  0  0  0  0  0  0  0  0  0
    1.7415   -0.2836    0.0000 C   0  0  0  0  0  0  0  0  0  0  0  0
    1.0271    0.9539    0.0000 C   0  0  0  0  0  0  0  0  0  0  0  0
   -1.8308    0.1289    0.0000 C   0  0  0  0  0  0  0  0  0  0  0  0
   -1.1164   -1.1086    0.0000 C   0  0  0  0  0  0  0  0  0  0  0  0
   -1.8308   -1.5211    0.0000 C   0  0  0  0  0  0  0  0  0  0  0  0
   -2.5453   -1.1086    0.0000 C   0  0  0  0  0  0  0  0  0  0  0  0
   -2.5453   -0.2836    0.0000 C   0  0  0  0  0  0  0  0  0  0  0  0
    2.4560    0.1289    0.0000 C   0  0  0  0  0  0  0  0  0  0  0  0
    2.4560    0.9539    0.0000 C   0  0  0  0  0  0  0  0  0  0  0  0
    1.7415    1.3664    0.0000 C   0  0  0  0  0  0  0  0  0  0  0  0
   -1.1164   -0.2836    0.0000 C   0  0  0  0  0  0  0  0  0  0  0  0
    1.0271    0.1289    0.0000 C   0  0  0  0  0  0  0  0  0  0  0  0
    3.1705   -0.2836    0.0000 O   0  0  0  0  0  0  0  0  0  0  0  0
    1.7415    2.1914    0.0000 O   0  0  0  0  0  0  0  0  0  0  0  0
   -3.2598   -1.5211    0.0000 O   0  0  0  0  0  0  0  0  0  0  0  0
  1  2  2  0  0  0  0
  1 14  1  0  0  0  0
  2 13  1  0  0  0  0
  3 14  1  0  0  0  0
 14  4  2  0  0  0  0
 10  3  2  0  0  0  0
 10 11  1  0  0  0  0
  4 12  1  0  0  0  0
 12 11  2  0  0  0  0
  6 13  2  0  0  0  0
  5 13  1  0  0  0  0
  5  9  2  0  0  0  0
  9  8  1  0  0  0  0
  8  7  2  0  0  0  0
  7  6  1  0  0  0  0
  8 17  1  0  0  0  0
 10 15  1  0  0  0  0
 12 16  1  0  0  0  0
M  END
> <ID>
CHEBI:45713

> <NAME>
trans-resveratrol

$$$$

ACD/Labs10152117302D

 26 29  0  0  1  0  0  0  0  0  1 V2000
   13.9280  -28.8493    0.0000 C   0  0  0  0  0  0  0  0  0  0  0  0
   12.7762  -29.5143    0.0000 C   0  0  0  0  0  0  0  0  0  0  0  0
   12.7762  -30.8443    0.0000 C   0  0  0  0  0  0  0  0  0  0  0  0
   13.9280  -31.5093    0.0000 C   0  0  0  0  0  0  0  0  0  0  0  0
   15.0797  -30.8443    0.0000 C   0  0  0  0  0  0  0  0  0  0  0  0
   15.0797  -29.5143    0.0000 C   0  0  0  0  0  0  0  0  0  0  0  0
   16.2315  -28.8493    0.0000 O   0  0  0  0  0  0  0  0  0  0  0  0
   16.2315  -31.5093    0.0000 C   0  0  0  0  0  0  0  0  0  0  0  0
   17.3834  -30.8443    0.0000 C   0  0  0  0  0  0  0  0  0  0  0  0
   17.3834  -29.5143    0.0000 C   0  0  0  0  0  0  0  0  0  0  0  0
   11.6244  -28.8493    0.0000 C   0  0  0  0  0  0  0  0  0  0  0  0
   15.0797  -28.1844    0.0000 H   0  0  0  0  0  0  0  0  0  0  0  0
   18.3237  -30.4548    0.0000 C   0  0  0  0  0  0  0  0  0  0  0  0
   17.5162  -31.8536    0.0000 C   0  0  0  0  0  0  0  0  0  0  0  0
   18.7133  -30.8443    0.0000 C   0  0  0  0  0  0  0  0  0  0  0  0
   18.0483  -31.9961    0.0000 O   0  0  0  0  0  0  0  0  0  0  0  0
   17.8604  -33.1381    0.0000 O   0  0  0  0  0  0  0  0  0  0  0  0
   16.2315  -32.8392    0.0000 C   0  0  0  0  0  0  0  0  0  0  0  0
   18.3237  -28.5738    0.0000 H   0  0  0  0  0  0  0  0  0  0  0  0
   15.0797  -32.1742    0.0000 C   0  0  0  0  0  0  0  0  0  0  0  0
   11.6244  -31.5093    0.0000 O   0  0  0  0  0  0  0  0  0  0  0  0
   19.1451  -33.4823    0.0000 C   0  0  0  0  0  0  0  0  0  0  0  0
   19.4893  -34.7670    0.0000 C   0  0  0  0  0  0  0  0  0  0  0  0
   20.0855  -32.5419    0.0000 O   0  0  0  0  0  0  0  0  0  0  0  0
   20.7739  -35.1113    0.0000 C   0  0  0  0  0  0  0  0  0  0  0  0
   21.7144  -34.1708    0.0000 C   0  0  0  0  0  0  0  0  0  0  0  0
  1  2  2  0  0  0  0
  2  3  1  0  0  0  0
  3  4  1  0  0  0  0
  4  5  1  0  0  0  0
  1  6  1  0  0  0  0
  7  6  1  0  0  0  0
  6  5  1  0  0  0  0
  5  8  1  0  0  0  0
  8  9  1  0  0  0  0
 10  9  1  0  0  0  0
  7 10  1  0  0  0  0
  2 11  1  0  0  0  0
  6 12  1  6  0  0  0
 10 13  1  0  0  0  0
  8 14  1  0  0  0  0
 13 14  1  0  0  0  0
  9 15  1  1  0  0  0
  9 16  1  0  0  0  0
 15 16  1  0  0  0  0
 14 17  1  1  0  0  0
  8 18  1  1  0  0  0
 10 19  1  1  0  0  0
  5 20  1  6  0  0  0
  3 21  2  0  0  0  0
 17 22  1  0  0  0  0
 22 23  1  0  0  0  0
 22 24  2  0  0  0  0
 23 25  2  0  0  0  0
 25 26  1  0  0  0  0
M  END
> <ID>
CHEBI:69621

> <NAME>
trichothecin

$$$$

Ketcher 02252109252D 1   1.00000     0.00000     0

 23 25  0     0  0            999 V2000
   -4.9205    2.5140    0.0000 C   0  0  0  0  0  0  0  0  0  0  0  0
   -4.0411    2.0063    0.0000 C   0  0  0  0  0  0  0  0  0  0  0  0
   -4.0411    0.9907    0.0000 C   0  0  0  0  0  0  0  0  0  0  0  0
   -4.9205    0.4830    0.0000 N   0  0  0  0  0  0  0  0  0  0  0  0
   -5.7999    0.9907    0.0000 C   0  0  0  0  0  0  0  0  0  0  0  0
   -5.7999    2.0063    0.0000 N   0  0  0  0  0  0  0  0  0  0  0  0
   -6.6793    0.4830    0.0000 N   0  0  0  0  0  0  0  0  0  0  0  0
   -6.6793    2.5140    0.0000 O   0  0  0  0  0  0  0  0  0  0  0  0
   -4.9205    3.5295    0.0000 C   0  0  0  0  0  0  0  0  0  0  0  0
   -5.7999    4.0372    0.0000 O   0  0  0  0  0  0  0  0  0  0  0  0
   -5.7999    5.0527    0.0000 C   0  0  0  0  0  0  0  0  0  0  0  0
   -6.6793    5.5604    0.0000 N   0  0  0  0  0  0  0  0  0  0  0  0
   -4.9205    5.5604    0.0000 O   0  0  0  0  0  0  0  0  0  0  0  0
   -3.0478    2.2174    0.0000 N   0  0  0  0  0  0  0  0  0  0  0  0
   -2.5400    1.3380    0.0000 C   0  0  0  0  0  0  0  0  0  0  0  0
   -3.2195    0.5833    0.0000 N   0  0  0  0  0  0  0  0  0  0  0  0
   -1.5245    1.3380    0.0000 N   0  0  0  0  0  0  0  0  0  0  0  0
   -4.0411    3.0218    0.0000 H   0  0  0  0  0  0  0  0  0  0  0  0
   -3.6766    0.0099    0.0000 C   0  0  0  0  0  0  0  0  0  0  0  0
   -5.1997   -0.2786    0.0000 C   0  0  0  0  0  0  0  0  0  0  0  0
   -4.3202   -0.6848    0.0000 C   0  0  0  0  0  0  0  0  0  0  0  0
   -2.9586   -0.7082    0.0000 O   0  0  0  0  0  0  0  0  0  0  0  0
   -2.6612    0.0099    0.0000 O   0  0  0  0  0  0  0  0  0  0  0  0
  1  2  1  0     0  0
  2  3  1  0     0  0
  3  4  1  0     0  0
  4  5  1  0     0  0
  5  6  1  0     0  0
  6  1  1  0     0  0
  5  7  2  0     0  0
  6  8  1  0     0  0
  1  9  1  1     0  0
  9 10  1  0     0  0
 10 11  1  0     0  0
 11 12  1  0     0  0
 11 13  2  0     0  0
  2 14  1  0     0  0
 14 15  1  0     0  0
 15 16  2  0     0  0
 16  3  1  0     0  0
 15 17  1  0     0  0
  2 18  1  1     0  0
  3 19  1  1     0  0
  4 20  1  0     0  0
 20 21  1  0     0  0
 21 19  1  0     0  0
 19 22  1  0     0  0
 19 23  1  0     0  0
M  END
> <ID>
CHEBI:167561

> <NAME>
neosaxitoxin

$$$$

CDK     1018121544

 28 32  0  0  0  0  0  0  0  0999 V2000
    7.6375    0.9875    0.0000 C   0  0  0  0  0  0  0  0  0  0  0  0
    6.8125    0.9875    0.0000 C   0  0  1  0  0  0  0  0  0  0  0  0
    7.2250    0.2730    0.0000 O   0  0  0  0  0  0  0  0  0  0  0  0
    3.9625    1.8083    0.0000 C   0  0  0  0  0  0  0  0  0  0  0  0
    4.6745    2.2250    0.0000 C   0  0  0  0  0  0  0  0  0  0  0  0
    5.3865    1.8083    0.0000 C   0  0  2  0  0  0  0  0  0  0  0  0
    5.3876    0.9833    0.0000 C   0  0  2  0  0  0  0  0  0  0  0  0
    6.0986    0.5740    0.0000 C   0  0  2  0  0  0  0  0  0  0  0  0
    6.8121    1.8102    0.0000 C   0  0  2  0  0  0  0  0  0  0  0  0
    6.0965    2.2240    0.0000 O   0  0  0  0  0  0  0  0  0  0  0  0
    3.2468    2.2187    0.0000 C   0  0  0  0  0  0  0  0  0  0  0  0
    5.3792    2.6333    0.0000 H   0  0  0  0  0  0  0  0  0  0  0  0
    5.3833    0.1625    0.0000 C   0  0  0  0  0  0  0  0  0  0  0  0
    6.0985   -0.2510    0.0000 C   0  0  0  0  0  0  0  0  0  0  0  0
    7.5265    2.2228    0.0000 H   0  0  0  0  0  0  0  0  0  0  0  0
    7.9917   -0.4750    0.0000 C   0  0  1  0  0  0  0  0  0  0  0  0
    8.5250    0.9625    0.0000 C   0  0  0  0  0  0  0  0  0  0  0  0
    8.2782   -1.2486    0.0000 O   0  0  0  0  0  0  0  0  0  0  0  0
    4.6745    0.5750    0.0000 C   0  0  2  0  0  0  0  0  0  0  0  0
    3.9625    0.9833    0.0000 C   0  0  1  0  0  0  0  0  0  0  0  0
    3.9649    0.1625    0.0000 O   0  0  0  0  0  0  0  0  0  0  0  0
    9.0915   -1.3873    0.0000 C   0  0  0  0  0  0  0  0  0  0  0  0
    9.3781   -2.1609    0.0000 C   0  0  0  0  0  0  0  0  0  0  0  0
   10.1913   -2.2995    0.0000 C   0  0  0  0  0  0  0  0  0  0  0  0
    9.6182   -0.7523    0.0000 O   0  0  0  0  0  0  0  0  0  0  0  0
    3.2458    0.5750    0.0000 H   0  0  0  0  0  0  0  0  0  0  0  0
    4.6667   -0.2500    0.0000 H   0  0  0  0  0  0  0  0  0  0  0  0
   10.7180   -1.6645    0.0000 C   0  0  0  0  0  0  0  0  0  0  0  0
  6  5  1  0  0  0  0 
  7 13  1  6  0  0  0 
  6  7  1  0  0  0  0 
  8 14  1  1  0  0  0 
  2  1  1  1  0  0  0 
  9 15  1  1  0  0  0 
  3  2  1  0  0  0  0 
  8 16  1  0  0  0  0 
  4 20  1  0  0  0  0 
  9 17  1  0  0  0  0 
 17 16  1  0  0  0  0 
  1  3  1  0  0  0  0 
 16 18  1  1  0  0  0 
 20 19  1  0  0  0  0 
 21 20  1  0  0  0  0 
 19 21  1  0  0  0  0 
  6 10  1  0  0  0  0 
  7  8  1  0  0  0  0 
  8  2  1  0  0  0  0 
 18 22  1  0  0  0  0 
  2  9  1  0  0  0  0 
 22 23  1  0  0  0  0 
  9 10  1  0  0  0  0 
 23 24  2  0  0  0  0 
  4  5  2  0  0  0  0 
 22 25  2  0  0  0  0 
  4 11  1  0  0  0  0 
 20 26  1  6  0  0  0 
 19  7  1  0  0  0  0 
 19 27  1  6  0  0  0 
  6 12  1  6  0  0  0 
 24 28  1  0  0  0  0 
M  END
> <ID>
CHEBI:69619

> <NAME>
Crotocin

$$$$

CDK     1018121544

 26 29  0  0  0  0  0  0  0  0999 V2000
   15.0708    1.1125    0.0000 C   0  0  0  0  0  0  0  0  0  0  0  0
   14.2458    1.1125    0.0000 C   0  0  1  0  0  0  0  0  0  0  0  0
   14.6583    0.3980    0.0000 O   0  0  0  0  0  0  0  0  0  0  0  0
   11.3958    1.9333    0.0000 C   0  0  0  0  0  0  0  0  0  0  0  0
   12.8199    1.9333    0.0000 C   0  0  2  0  0  0  0  0  0  0  0  0
   12.8209    1.1083    0.0000 C   0  0  2  0  0  0  0  0  0  0  0  0
   13.5320    0.6990    0.0000 C   0  0  2  0  0  0  0  0  0  0  0  0
   14.2455    1.9352    0.0000 C   0  0  2  0  0  0  0  0  0  0  0  0
   13.5299    2.3490    0.0000 O   0  0  0  0  0  0  0  0  0  0  0  0
   10.6802    2.3437    0.0000 C   0  0  0  0  0  0  0  0  0  0  0  0
   12.8125    2.7583    0.0000 H   0  0  0  0  0  0  0  0  0  0  0  0
   12.8167    0.2875    0.0000 C   0  0  0  0  0  0  0  0  0  0  0  0
   13.5319   -0.1260    0.0000 C   0  0  0  0  0  0  0  0  0  0  0  0
   14.9598    2.3478    0.0000 H   0  0  0  0  0  0  0  0  0  0  0  0
   15.4250   -0.3500    0.0000 C   0  0  1  0  0  0  0  0  0  0  0  0
   15.9583    1.0875    0.0000 C   0  0  0  0  0  0  0  0  0  0  0  0
   12.1079    0.7000    0.0000 C   0  0  0  0  0  0  0  0  0  0  0  0
   11.3958    1.1083    0.0000 C   0  0  2  0  0  0  0  0  0  0  0  0
   12.1097    2.3469    0.0000 C   0  0  0  0  0  0  0  0  0  0  0  0
   15.7116   -1.1236    0.0000 O   0  0  0  0  0  0  0  0  0  0  0  0
   10.6820    0.6948    0.0000 O   0  0  0  0  0  0  0  0  0  0  0  0
   16.5248   -1.2623    0.0000 C   0  0  0  0  0  0  0  0  0  0  0  0
   16.8114   -2.0359    0.0000 C   0  0  0  0  0  0  0  0  0  0  0  0
   17.6247   -2.1745    0.0000 C   0  0  0  0  0  0  0  0  0  0  0  0
   17.0515   -0.6273    0.0000 O   0  0  0  0  0  0  0  0  0  0  0  0
   18.1514   -1.5395    0.0000 C   0  0  0  0  0  0  0  0  0  0  0  0
  5  6  1  0  0  0  0 
  6 12  1  6  0  0  0 
  7 13  1  1  0  0  0 
  2  1  1  1  0  0  0 
  8 14  1  1  0  0  0 
  3  2  1  0  0  0  0 
  7 15  1  0  0  0  0 
  4 18  1  0  0  0  0 
  8 16  1  0  0  0  0 
 16 15  1  0  0  0  0 
 18 17  1  0  0  0  0 
  1  3  1  0  0  0  0 
  5  9  1  0  0  0  0 
  6  7  1  0  0  0  0 
  4 19  2  0  0  0  0 
  7  2  1  0  0  0  0 
 15 20  1  1  0  0  0 
  2  8  1  0  0  0  0 
 18 21  1  6  0  0  0 
  8  9  1  0  0  0  0 
 20 22  1  0  0  0  0 
 17  6  1  0  0  0  0 
 22 23  1  0  0  0  0 
  4 10  1  0  0  0  0 
 23 24  2  0  0  0  0 
  5 19  1  0  0  0  0 
 22 25  2  0  0  0  0 
  5 11  1  6  0  0  0 
 24 26  1  0  0  0  0 
M  END
> <ID>
CHEBI:69620

> <NAME>
Trichothecinol B

$$$$
null
  CDK     0225161858
null
 16 16  0  0  0  0  0  0  0  0999 V2000
    1.2822    2.3518    0.0000 C   0  0  0  0  0  0  0  0  0  0  0  0
    0.5678    1.9393    0.0000 C   0  0  0  0  0  0  0  0  0  0  0  0
    0.5678    1.1143    0.0000 C   0  0  0  0  0  0  0  0  0  0  0  0
    1.2352    0.6294    0.0000 C   0  0  0  0  0  0  0  0  0  0  0  0
    0.9803   -0.1553    0.0000 O   0  0  0  0  0  0  0  0  0  0  0  0
    0.1553   -0.1553    0.0000 C   0  0  0  0  0  0  0  0  0  0  0  0
   -0.3297   -0.8227    0.0000 C   0  0  0  0  0  0  0  0  0  0  0  0
    0.0059   -1.5764    0.0000 C   0  0  0  0  0  0  0  0  0  0  0  0
   -0.4790   -2.2438    0.0000 C   0  0  0  0  0  0  0  0  0  0  0  0
   -0.1435   -2.9975    0.0000 Cl  0  0  0  0  0  0  0  0  0  0  0  0
   -1.2995   -2.1576    0.0000 Cl  0  0  0  0  0  0  0  0  0  0  0  0
    0.8264   -1.6626    0.0000 Cl  0  0  0  0  0  0  0  0  0  0  0  0
   -1.1501   -0.7365    0.0000 N   0  0  0  0  0  0  0  0  0  0  0  0
   -1.6351   -1.4039    0.0000 O   0  0  0  0  0  0  0  0  0  0  0  0
   -1.4857    0.0172    0.0000 O   0  0  0  0  0  0  0  0  0  0  0  0
   -0.0997    0.6294    0.0000 N   0  0  0  0  0  0  0  0  0  0  0  0
  1  2  1  0  0  0  0 
  2  3  1  0  0  0  0 
  3  4  1  0  0  0  0 
  4  5  1  0  0  0  0 
  6  5  1  4  0  0  0 
  6  7  2  0  0  0  0 
  7  8  1  0  0  0  0 
  8  9  2  0  0  0  0 
  9 10  1  0  0  0  0 
  9 11  1  0  0  0  0 
  8 12  1  0  0  0  0 
  7 13  1  0  0  0  0 
 13 14  2  0  0  0  0 
 13 15  1  0  0  0  0 
  6 16  1  0  0  0  0 
 16  3  1  0  0  0  0 
M  CHG  1  13   1
M  CHG  1  15  -1
M  END
> <ID>
CHEBI:112755

> <NAME>
4-ethyl-2-(2,3,3-trichloro-1-nitroprop-2-enylidene)oxazolidine

$$$$

Ketcher 08292011222D 1   1.00000     0.00000     0

 17 18  0     0  0            999 V2000
    0.0000    0.0000    0.0000 C   0  0  0  0  0  0  0  0  0  0  0  0
   -0.1045    0.9945    0.0000 O   0  0  0  0  0  0  0  0  0  0  0  0
   -1.0827    1.2024    0.0000 C   0  0  0  0  0  0  0  0  0  0  0  0
   -1.5827    0.3364    0.0000 C   0  0  0  0  0  0  0  0  0  0  0  0
   -0.9136   -0.4067    0.0000 O   0  0  0  0  0  0  0  0  0  0  0  0
   -2.5827    0.3364    0.0000 C   0  0  0  0  0  0  0  0  0  0  0  0
   -3.0827   -0.5296    0.0000 O   0  0  0  0  0  0  0  0  0  0  0  0
   -3.0827    1.2024    0.0000 N   0  0  0  0  0  0  0  0  0  0  0  0
   -2.5827    2.0684    0.0000 C   0  0  0  0  0  0  0  0  0  0  0  0
   -3.0827    2.9345    0.0000 C   0  0  0  0  0  0  0  0  0  0  0  0
   -1.5827    2.0684    0.0000 C   0  0  0  0  0  0  0  0  0  0  0  0
    0.9781    0.2079    0.0000 C   0  0  0  0  0  0  0  0  0  0  0  0
    1.2872    1.1590    0.0000 O   0  0  0  0  0  0  0  0  0  0  0  0
    1.6472   -0.5352    0.0000 C   0  0  0  0  0  0  0  0  0  0  0  0
    2.6254   -0.3273    0.0000 C   0  0  0  0  0  0  0  0  0  0  0  0
    2.9344    0.6237    0.0000 C   0  0  0  0  0  0  0  0  0  0  0  0
    3.2945   -1.0704    0.0000 C   0  0  0  0  0  0  0  0  0  0  0  0
  1  2  1  0     0  0
  2  3  1  0     0  0
  3  4  2  0     0  0
  4  5  1  0     0  0
  5  1  1  0     0  0
  4  6  1  0     0  0
  6  7  2  0     0  0
  6  8  1  0     0  0
  8  9  1  0     0  0
  9 10  1  0     0  0
  9 11  2  0     0  0
 11  3  1  0     0  0
  1 12  1  0     0  0
 12 13  2  0     0  0
 12 14  1  0     0  0
 14 15  1  0     0  0
 15 16  1  0     0  0
 15 17  1  0     0  0
M  END
> <ID>
CHEBI:156435

> <NAME>
isoflavipucine

$$$$
3034751
  CDK     0409211652

 49 48  0  0  0  0  0  0  0  0999 V2000
    7.0943   -2.3471    0.0000 O   0  0  0  0  0  0  0  0  0  0  0  0
    5.6654   -3.1721    0.0000 O   0  0  0  0  0  0  0  0  0  0  0  0
    8.5232    0.1279    0.0000 O   0  0  0  0  0  0  0  0  0  0  0  0
    6.3798   -3.5846    0.0000 O   0  0  0  0  0  0  0  0  0  0  0  0
    4.2364   -3.1721    0.0000 O   0  0  0  0  0  0  0  0  0  0  0  0
    9.2377    5.4904    0.0000 O   0  0  0  0  0  0  0  0  0  0  0  0
    8.5232   -5.6471    0.0000 O   0  0  0  0  0  0  0  0  0  0  0  0
    3.5219   -6.0596    0.0000 O   0  0  0  0  0  0  0  0  0  0  0  0
    9.2377   -4.4096    0.0000 O   0  0  0  0  0  0  0  0  0  0  0  0
    4.9508   -6.0596    0.0000 O   0  0  0  0  0  0  0  0  0  0  0  0
    6.3798   -6.0596    0.0000 O   0  0  0  0  0  0  0  0  0  0  0  0
    2.0929   -4.4096    0.0000 O   0  0  0  0  0  0  0  0  0  0  0  0
    7.8087   -6.0596    0.0000 O   0  0  0  0  0  0  0  0  0  0  0  0
    2.8075   -5.6471    0.0000 O   0  0  0  0  0  0  0  0  0  0  0  0
   10.6666    6.3154    0.0000 N   0  0  0  0  0  0  0  0  0  0  0  0
    6.3798   -1.9346    0.0000 C   0  0  2  0  0  0  0  0  0  0  0  0
    5.6654   -2.3471    0.0000 C   0  0  1  0  0  0  0  0  0  0  0  0
    7.0943   -0.6971    0.0000 C   0  0  2  0  0  0  0  0  0  0  0  0
    6.3798   -1.1096    0.0000 C   0  0  0  0  0  0  0  0  0  0  0  0
    4.9508   -1.9346    0.0000 C   0  0  1  0  0  0  0  0  0  0  0  0
    7.0943    0.1279    0.0000 C   0  0  0  0  0  0  0  0  0  0  0  0
    4.2364   -2.3471    0.0000 C   0  0  0  0  0  0  0  0  0  0  0  0
    7.8087    0.5404    0.0000 C   0  0  1  0  0  0  0  0  0  0  0  0
    7.8087   -1.1096    0.0000 C   0  0  0  0  0  0  0  0  0  0  0  0
    7.8087    1.3654    0.0000 C   0  0  0  0  0  0  0  0  0  0  0  0
    4.9508   -1.1096    0.0000 C   0  0  0  0  0  0  0  0  0  0  0  0
    3.5219   -1.9346    0.0000 C   0  0  0  0  0  0  0  0  0  0  0  0
    8.5232    1.7779    0.0000 C   0  0  0  0  0  0  0  0  0  0  0  0
    8.5232    2.6029    0.0000 C   0  0  0  0  0  0  0  0  0  0  0  0
    2.8075   -2.3471    0.0000 C   0  0  0  0  0  0  0  0  0  0  0  0
    9.2377    3.0154    0.0000 C   0  0  0  0  0  0  0  0  0  0  0  0
    7.0943   -3.1721    0.0000 C   0  0  0  0  0  0  0  0  0  0  0  0
    4.9508   -3.5846    0.0000 C   0  0  0  0  0  0  0  0  0  0  0  0
    9.2377    3.8404    0.0000 C   0  0  0  0  0  0  0  0  0  0  0  0
    7.8087   -3.5846    0.0000 C   0  0  0  0  0  0  0  0  0  0  0  0
    4.9508   -4.4096    0.0000 C   0  0  0  0  0  0  0  0  0  0  0  0
    9.9521    4.2529    0.0000 C   0  0  0  0  0  0  0  0  0  0  0  0
    2.0929   -1.9346    0.0000 C   0  0  0  0  0  0  0  0  0  0  0  0
    9.9521    5.0779    0.0000 C   0  0  2  0  0  0  0  0  0  0  0  0
    7.8087   -4.4096    0.0000 C   0  0  0  0  0  0  0  0  0  0  0  0
    4.2364   -4.8221    0.0000 C   0  0  0  0  0  0  0  0  0  0  0  0
   10.6666    5.4904    0.0000 C   0  0  2  0  0  0  0  0  0  0  0  0
    7.0943   -4.8221    0.0000 C   0  0  0  0  0  0  0  0  0  0  0  0
    3.5219   -4.4096    0.0000 C   0  0  0  0  0  0  0  0  0  0  0  0
    8.5232   -4.8221    0.0000 C   0  0  0  0  0  0  0  0  0  0  0  0
    4.2364   -5.6471    0.0000 C   0  0  0  0  0  0  0  0  0  0  0  0
   11.3811    5.0779    0.0000 C   0  0  0  0  0  0  0  0  0  0  0  0
    7.0943   -5.6471    0.0000 C   0  0  0  0  0  0  0  0  0  0  0  0
    2.8075   -4.8221    0.0000 C   0  0  0  0  0  0  0  0  0  0  0  0
 16  1  1  6  0  0  0 
  1 32  1  0  0  0  0 
 17  2  1  6  0  0  0 
  2 33  1  0  0  0  0 
 23  3  1  1  0  0  0 
  4 32  2  0  0  0  0 
  5 33  2  0  0  0  0 
 39  6  1  1  0  0  0 
  7 45  1  0  0  0  0 
  8 46  1  0  0  0  0 
  9 45  2  0  0  0  0 
 10 46  2  0  0  0  0 
 11 48  1  0  0  0  0 
 12 49  1  0  0  0  0 
 13 48  2  0  0  0  0 
 14 49  2  0  0  0  0 
 42 15  1  1  0  0  0 
 16 17  1  0  0  0  0 
 16 19  1  0  0  0  0 
 17 20  1  0  0  0  0 
 18 19  1  0  0  0  0 
 18 21  1  0  0  0  0 
 18 24  1  6  0  0  0 
 20 22  1  0  0  0  0 
 20 26  1  1  0  0  0 
 21 23  1  0  0  0  0 
 22 27  1  0  0  0  0 
 23 25  1  0  0  0  0 
 25 28  1  0  0  0  0 
 27 30  1  0  0  0  0 
 28 29  1  0  0  0  0 
 29 31  1  0  0  0  0 
 30 38  1  0  0  0  0 
 31 34  1  0  0  0  0 
 32 35  1  0  0  0  0 
 33 36  1  0  0  0  0 
 34 37  1  0  0  0  0 
 35 40  1  0  0  0  0 
 36 41  1  0  0  0  0 
 37 39  1  0  0  0  0 
 39 42  1  0  0  0  0 
 40 43  1  0  0  0  0 
 40 45  1  0  0  0  0 
 41 44  1  0  0  0  0 
 41 46  1  0  0  0  0 
 42 47  1  0  0  0  0 
 43 48  1  0  0  0  0 
 44 49  1  0  0  0  0 
M  END
> <ID>
CHEBI:169172

> <NAME>
Fumonisin B3

$$$$
11305122
  CDK     1116211528

 31 31  0  0  0  0  0  0  0  0999 V2000
   13.7401    0.8790    0.0000 O   0  0  0  0  0  0  0  0  0  0  0  0
   12.6132   -1.6281    0.0000 O   0  0  0  0  0  0  0  0  0  0  0  0
   14.0421   -1.6281    0.0000 O   0  0  0  0  0  0  0  0  0  0  0  0
   11.7040   -0.9676    0.0000 O   0  0  0  0  0  0  0  0  0  0  0  0
   13.3276   -0.3906    0.0000 N   0  0  0  0  0  0  0  0  0  0  0  0
   13.9951    0.0944    0.0000 C   0  0  0  0  0  0  0  0  0  0  0  0
   12.6602    0.0944    0.0000 C   0  0  1  0  0  0  0  0  0  0  0  0
   12.9151    0.8790    0.0000 C   0  0  0  0  0  0  0  0  0  0  0  0
   14.7797    0.3493    0.0000 C   0  0  0  0  0  0  0  0  0  0  0  0
   14.4800   -0.5731    0.0000 C   0  0  0  0  0  0  0  0  0  0  0  0
   13.3276   -1.2156    0.0000 C   0  0  0  0  0  0  0  0  0  0  0  0
   11.8755   -0.1606    0.0000 C   0  0  0  0  0  0  0  0  0  0  0  0
    6.4563    1.8348    0.0000 C   0  0  0  0  0  0  0  0  0  0  0  0
    5.8431    2.3868    0.0000 C   0  0  0  0  0  0  0  0  0  0  0  0
    7.2409    2.0897    0.0000 C   0  0  0  0  0  0  0  0  0  0  0  0
    5.0586    2.1319    0.0000 C   0  0  0  0  0  0  0  0  0  0  0  0
    7.8540    1.5376    0.0000 C   0  0  0  0  0  0  0  0  0  0  0  0
    4.4454    2.6839    0.0000 C   0  0  0  0  0  0  0  0  0  0  0  0
   12.6132   -2.4531    0.0000 C   0  0  0  0  0  0  0  0  0  0  0  0
    8.6386    1.7926    0.0000 C   0  0  0  0  0  0  0  0  0  0  0  0
    3.6609    2.4290    0.0000 C   0  0  0  0  0  0  0  0  0  0  0  0
    9.2517    1.2406    0.0000 C   0  0  0  0  0  0  0  0  0  0  0  0
    3.0477    2.9810    0.0000 C   0  0  0  0  0  0  0  0  0  0  0  0
   11.2625    0.3915    0.0000 C   0  0  0  0  0  0  0  0  0  0  0  0
   10.0363    1.4955    0.0000 C   0  0  0  0  0  0  0  0  0  0  0  0
   12.6132   -3.2781    0.0000 C   0  0  0  0  0  0  0  0  0  0  0  0
   11.7882   -2.4531    0.0000 C   0  0  0  0  0  0  0  0  0  0  0  0
   13.4382   -2.4531    0.0000 C   0  0  0  0  0  0  0  0  0  0  0  0
    2.2631    2.7260    0.0000 C   0  0  0  0  0  0  0  0  0  0  0  0
   10.6494    0.9435    0.0000 C   0  0  0  0  0  0  0  0  0  0  0  0
    1.6500    3.2781    0.0000 C   0  0  0  0  0  0  0  0  0  0  0  0
  1  6  1  0  0  0  0 
  1  8  1  0  0  0  0 
  2 11  1  0  0  0  0 
  2 19  1  0  0  0  0 
  3 11  2  0  0  0  0 
  4 12  2  0  0  0  0 
  5  6  1  0  0  0  0 
  5  7  1  0  0  0  0 
  5 11  1  0  0  0  0 
  6  9  1  0  0  0  0 
  6 10  1  0  0  0  0 
  7  8  1  0  0  0  0 
  7 12  1  6  0  0  0 
 12 24  1  0  0  0  0 
 13 14  1  0  0  0  0 
 13 15  1  0  0  0  0 
 14 16  1  0  0  0  0 
 15 17  1  0  0  0  0 
 16 18  1  0  0  0  0 
 17 20  1  0  0  0  0 
 18 21  1  0  0  0  0 
 19 26  1  0  0  0  0 
 19 27  1  0  0  0  0 
 19 28  1  0  0  0  0 
 20 22  1  0  0  0  0 
 21 23  1  0  0  0  0 
 22 25  1  0  0  0  0 
 23 29  1  0  0  0  0 
 24 30  3  0  0  0  0 
 25 30  1  0  0  0  0 
 29 31  1  0  0  0  0 
M  END
> <ID>
CHEBI:184005

> <NAME>
3-oxazolidinecarboxylic acid, 2,2-dimethyl-4-(1-oxo-2-hexadecyn-1-yl)-, 1,1-dimethylethyl ester, (4s)-

$$$$
5486176
  CDK     1202211636

 53 52  0  0  0  0  0  0  0  0999 V2000
    7.0943   -2.8380    0.0000 O   0  0  0  0  0  0  0  0  0  0  0  0
    5.6654   -3.6630    0.0000 O   0  0  0  0  0  0  0  0  0  0  0  0
    8.5232   -0.3630    0.0000 O   0  0  0  0  0  0  0  0  0  0  0  0
    8.5232    3.7620    0.0000 O   0  0  0  0  0  0  0  0  0  0  0  0
    6.3798   -4.0755    0.0000 O   0  0  0  0  0  0  0  0  0  0  0  0
    4.2364   -3.6630    0.0000 O   0  0  0  0  0  0  0  0  0  0  0  0
    9.2377    4.9995    0.0000 O   0  0  0  0  0  0  0  0  0  0  0  0
    8.5232   -6.1380    0.0000 O   0  0  0  0  0  0  0  0  0  0  0  0
    3.5219   -6.5505    0.0000 O   0  0  0  0  0  0  0  0  0  0  0  0
    9.2377   -4.9005    0.0000 O   0  0  0  0  0  0  0  0  0  0  0  0
    4.9508   -6.5505    0.0000 O   0  0  0  0  0  0  0  0  0  0  0  0
    6.3798   -6.5505    0.0000 O   0  0  0  0  0  0  0  0  0  0  0  0
    2.0929   -4.9005    0.0000 O   0  0  0  0  0  0  0  0  0  0  0  0
    7.8087   -6.5505    0.0000 O   0  0  0  0  0  0  0  0  0  0  0  0
    2.8075   -6.1380    0.0000 O   0  0  0  0  0  0  0  0  0  0  0  0
   12.0956    5.8245    0.0000 O   0  0  0  0  0  0  0  0  0  0  0  0
   10.6666    5.8245    0.0000 N   0  0  0  0  0  0  0  0  0  0  0  0
    6.3798   -2.4255    0.0000 C   0  0  2  0  0  0  0  0  0  0  0  0
    5.6654   -2.8380    0.0000 C   0  0  1  0  0  0  0  0  0  0  0  0
    7.0943   -1.1880    0.0000 C   0  0  2  0  0  0  0  0  0  0  0  0
    6.3798   -1.6005    0.0000 C   0  0  0  0  0  0  0  0  0  0  0  0
    4.9508   -2.4255    0.0000 C   0  0  1  0  0  0  0  0  0  0  0  0
    7.0943   -0.3630    0.0000 C   0  0  0  0  0  0  0  0  0  0  0  0
    4.2364   -2.8380    0.0000 C   0  0  0  0  0  0  0  0  0  0  0  0
    7.8087    0.0495    0.0000 C   0  0  1  0  0  0  0  0  0  0  0  0
    7.8087   -1.6005    0.0000 C   0  0  0  0  0  0  0  0  0  0  0  0
    7.8087    0.8745    0.0000 C   0  0  0  0  0  0  0  0  0  0  0  0
    4.9508   -1.6005    0.0000 C   0  0  0  0  0  0  0  0  0  0  0  0
    3.5219   -2.4255    0.0000 C   0  0  0  0  0  0  0  0  0  0  0  0
    8.5232    1.2870    0.0000 C   0  0  0  0  0  0  0  0  0  0  0  0
    8.5232    2.1120    0.0000 C   0  0  0  0  0  0  0  0  0  0  0  0
    9.2377    2.5245    0.0000 C   0  0  0  0  0  0  0  0  0  0  0  0
    2.8075   -2.8380    0.0000 C   0  0  0  0  0  0  0  0  0  0  0  0
    9.2377    3.3495    0.0000 C   0  0  1  0  0  0  0  0  0  0  0  0
    7.0943   -3.6630    0.0000 C   0  0  0  0  0  0  0  0  0  0  0  0
    4.9508   -4.0755    0.0000 C   0  0  0  0  0  0  0  0  0  0  0  0
    9.9521    3.7620    0.0000 C   0  0  0  0  0  0  0  0  0  0  0  0
    9.9521    4.5870    0.0000 C   0  0  2  0  0  0  0  0  0  0  0  0
    7.8087   -4.0755    0.0000 C   0  0  0  0  0  0  0  0  0  0  0  0
    4.9508   -4.9005    0.0000 C   0  0  0  0  0  0  0  0  0  0  0  0
    2.0929   -2.4255    0.0000 C   0  0  0  0  0  0  0  0  0  0  0  0
   10.6666    4.9995    0.0000 C   0  0  1  0  0  0  0  0  0  0  0  0
    7.8087   -4.9005    0.0000 C   0  0  1  0  0  0  0  0  0  0  0  0
    4.2364   -5.3130    0.0000 C   0  0  1  0  0  0  0  0  0  0  0  0
    7.0943   -5.3130    0.0000 C   0  0  0  0  0  0  0  0  0  0  0  0
    3.5219   -4.9005    0.0000 C   0  0  0  0  0  0  0  0  0  0  0  0
   11.3811    4.5870    0.0000 C   0  0  0  0  0  0  0  0  0  0  0  0
    8.5232   -5.3130    0.0000 C   0  0  0  0  0  0  0  0  0  0  0  0
    4.2364   -6.1380    0.0000 C   0  0  0  0  0  0  0  0  0  0  0  0
    7.0943   -6.1380    0.0000 C   0  0  0  0  0  0  0  0  0  0  0  0
    2.8075   -5.3130    0.0000 C   0  0  0  0  0  0  0  0  0  0  0  0
   11.3811    6.2370    0.0000 C   0  0  0  0  0  0  0  0  0  0  0  0
   11.3811    7.0620    0.0000 C   0  0  0  0  0  0  0  0  0  0  0  0
 18  1  1  6  0  0  0 
  1 35  1  0  0  0  0 
 19  2  1  6  0  0  0 
  2 36  1  0  0  0  0 
 25  3  1  1  0  0  0 
 34  4  1  6  0  0  0 
  5 35  2  0  0  0  0 
  6 36  2  0  0  0  0 
 38  7  1  1  0  0  0 
  8 48  1  0  0  0  0 
  9 49  1  0  0  0  0 
 10 48  2  0  0  0  0 
 11 49  2  0  0  0  0 
 12 50  1  0  0  0  0 
 13 51  1  0  0  0  0 
 14 50  2  0  0  0  0 
 15 51  2  0  0  0  0 
 16 52  2  0  0  0  0 
 42 17  1  6  0  0  0 
 17 52  1  0  0  0  0 
 18 19  1  0  0  0  0 
 18 21  1  0  0  0  0 
 19 22  1  0  0  0  0 
 20 21  1  0  0  0  0 
 20 23  1  0  0  0  0 
 20 26  1  6  0  0  0 
 22 24  1  0  0  0  0 
 22 28  1  1  0  0  0 
 23 25  1  0  0  0  0 
 24 29  1  0  0  0  0 
 25 27  1  0  0  0  0 
 27 30  1  0  0  0  0 
 29 33  1  0  0  0  0 
 30 31  1  0  0  0  0 
 31 32  1  0  0  0  0 
 32 34  1  0  0  0  0 
 33 41  1  0  0  0  0 
 34 37  1  0  0  0  0 
 35 39  1  0  0  0  0 
 36 40  1  0  0  0  0 
 37 38  1  0  0  0  0 
 38 42  1  0  0  0  0 
 43 39  1  6  0  0  0 
 44 40  1  6  0  0  0 
 42 47  1  0  0  0  0 
 43 45  1  0  0  0  0 
 43 48  1  0  0  0  0 
 44 46  1  0  0  0  0 
 44 49  1  0  0  0  0 
 45 50  1  0  0  0  0 
 46 51  1  0  0  0  0 
 52 53  1  0  0  0  0 
M  END
> <ID>
CHEBI:184800

> <NAME>
Fumonisin A1

$$$$
53461873
  CDK     1202211636

 48 47  0  0  0  0  0  0  0  0999 V2000
    7.0943   -2.3471    0.0000 O   0  0  0  0  0  0  0  0  0  0  0  0
    5.6654   -3.1721    0.0000 O   0  0  0  0  0  0  0  0  0  0  0  0
    6.3798   -3.5846    0.0000 O   0  0  0  0  0  0  0  0  0  0  0  0
    4.2364   -3.1721    0.0000 O   0  0  0  0  0  0  0  0  0  0  0  0
    9.2377    5.4904    0.0000 O   0  0  0  0  0  0  0  0  0  0  0  0
    8.5232   -5.6471    0.0000 O   0  0  0  0  0  0  0  0  0  0  0  0
    3.5219   -6.0596    0.0000 O   0  0  0  0  0  0  0  0  0  0  0  0
    9.2377   -4.4096    0.0000 O   0  0  0  0  0  0  0  0  0  0  0  0
    4.9508   -6.0596    0.0000 O   0  0  0  0  0  0  0  0  0  0  0  0
    6.3798   -6.0596    0.0000 O   0  0  0  0  0  0  0  0  0  0  0  0
    2.0929   -4.4096    0.0000 O   0  0  0  0  0  0  0  0  0  0  0  0
    7.8087   -6.0596    0.0000 O   0  0  0  0  0  0  0  0  0  0  0  0
    2.8075   -5.6471    0.0000 O   0  0  0  0  0  0  0  0  0  0  0  0
   10.6666    6.3154    0.0000 N   0  0  0  0  0  0  0  0  0  0  0  0
    6.3798   -1.9346    0.0000 C   0  0  0  0  0  0  0  0  0  0  0  0
    5.6654   -2.3471    0.0000 C   0  0  0  0  0  0  0  0  0  0  0  0
    6.3798   -1.1096    0.0000 C   0  0  0  0  0  0  0  0  0  0  0  0
    7.0943   -0.6971    0.0000 C   0  0  0  0  0  0  0  0  0  0  0  0
    4.9508   -1.9346    0.0000 C   0  0  0  0  0  0  0  0  0  0  0  0
    7.0943    0.1279    0.0000 C   0  0  0  0  0  0  0  0  0  0  0  0
    4.2364   -2.3471    0.0000 C   0  0  0  0  0  0  0  0  0  0  0  0
    7.8087    0.5404    0.0000 C   0  0  0  0  0  0  0  0  0  0  0  0
    7.8087   -1.1096    0.0000 C   0  0  0  0  0  0  0  0  0  0  0  0
    4.9508   -1.1096    0.0000 C   0  0  0  0  0  0  0  0  0  0  0  0
    3.5219   -1.9346    0.0000 C   0  0  0  0  0  0  0  0  0  0  0  0
    7.8087    1.3654    0.0000 C   0  0  0  0  0  0  0  0  0  0  0  0
    8.5232    1.7779    0.0000 C   0  0  0  0  0  0  0  0  0  0  0  0
    2.8075   -2.3471    0.0000 C   0  0  0  0  0  0  0  0  0  0  0  0
    8.5232    2.6029    0.0000 C   0  0  0  0  0  0  0  0  0  0  0  0
    9.2377    3.0154    0.0000 C   0  0  0  0  0  0  0  0  0  0  0  0
    7.0943   -3.1721    0.0000 C   0  0  0  0  0  0  0  0  0  0  0  0
    4.9508   -3.5846    0.0000 C   0  0  0  0  0  0  0  0  0  0  0  0
    9.2377    3.8404    0.0000 C   0  0  0  0  0  0  0  0  0  0  0  0
    7.8087   -3.5846    0.0000 C   0  0  0  0  0  0  0  0  0  0  0  0
    4.9508   -4.4096    0.0000 C   0  0  0  0  0  0  0  0  0  0  0  0
    2.0929   -1.9346    0.0000 C   0  0  0  0  0  0  0  0  0  0  0  0
    9.9521    4.2529    0.0000 C   0  0  0  0  0  0  0  0  0  0  0  0
    7.8087   -4.4096    0.0000 C   0  0  0  0  0  0  0  0  0  0  0  0
    4.2364   -4.8221    0.0000 C   0  0  0  0  0  0  0  0  0  0  0  0
    9.9521    5.0779    0.0000 C   0  0  0  0  0  0  0  0  0  0  0  0
   10.6666    5.4904    0.0000 C   0  0  0  0  0  0  0  0  0  0  0  0
    7.0943   -4.8221    0.0000 C   0  0  0  0  0  0  0  0  0  0  0  0
    3.5219   -4.4096    0.0000 C   0  0  0  0  0  0  0  0  0  0  0  0
    8.5232   -4.8221    0.0000 C   0  0  0  0  0  0  0  0  0  0  0  0
    4.2364   -5.6471    0.0000 C   0  0  0  0  0  0  0  0  0  0  0  0
   11.3811    5.0779    0.0000 C   0  0  0  0  0  0  0  0  0  0  0  0
    7.0943   -5.6471    0.0000 C   0  0  0  0  0  0  0  0  0  0  0  0
    2.8075   -4.8221    0.0000 C   0  0  0  0  0  0  0  0  0  0  0  0
  1 15  1  0  0  0  0 
  1 31  1  0  0  0  0 
  2 16  1  0  0  0  0 
  2 32  1  0  0  0  0 
  3 31  2  0  0  0  0 
  4 32  2  0  0  0  0 
  5 40  1  0  0  0  0 
  6 44  1  0  0  0  0 
  7 45  1  0  0  0  0 
  8 44  2  0  0  0  0 
  9 45  2  0  0  0  0 
 10 47  1  0  0  0  0 
 11 48  1  0  0  0  0 
 12 47  2  0  0  0  0 
 13 48  2  0  0  0  0 
 14 41  1  0  0  0  0 
 15 16  1  0  0  0  0 
 15 17  1  0  0  0  0 
 16 19  1  0  0  0  0 
 17 18  1  0  0  0  0 
 18 20  1  0  0  0  0 
 18 23  1  0  0  0  0 
 19 21  1  0  0  0  0 
 19 24  1  0  0  0  0 
 20 22  1  0  0  0  0 
 21 25  1  0  0  0  0 
 22 26  1  0  0  0  0 
 25 28  1  0  0  0  0 
 26 27  1  0  0  0  0 
 27 29  1  0  0  0  0 
 28 36  1  0  0  0  0 
 29 30  1  0  0  0  0 
 30 33  1  0  0  0  0 
 31 34  1  0  0  0  0 
 32 35  1  0  0  0  0 
 33 37  1  0  0  0  0 
 34 38  1  0  0  0  0 
 35 39  1  0  0  0  0 
 37 40  1  0  0  0  0 
 38 42  1  0  0  0  0 
 38 44  1  0  0  0  0 
 39 43  1  0  0  0  0 
 39 45  1  0  0  0  0 
 40 41  1  0  0  0  0 
 41 46  1  0  0  0  0 
 42 47  1  0  0  0  0 
 43 48  1  0  0  0  0 
M  END
> <ID>
CHEBI:184805

> <NAME>
2-[2-({19-amino-6-[(3,4-dicarboxybutanoyl)oxy]-18-hydroxy-5,9-dimethylicosan-7-yl}oxy)-2-oxoethyl]butanedioic acid

$$$$
3431
  CDK     1202211636

 50 49  0  0  0  0  0  0  0  0999 V2000
    7.0943   -2.3471    0.0000 O   0  0  0  0  0  0  0  0  0  0  0  0
    5.6654   -3.1721    0.0000 O   0  0  0  0  0  0  0  0  0  0  0  0
    8.5232    0.1279    0.0000 O   0  0  0  0  0  0  0  0  0  0  0  0
    8.5232    4.2529    0.0000 O   0  0  0  0  0  0  0  0  0  0  0  0
    6.3798   -3.5846    0.0000 O   0  0  0  0  0  0  0  0  0  0  0  0
    4.2364   -3.1721    0.0000 O   0  0  0  0  0  0  0  0  0  0  0  0
    9.2377    5.4904    0.0000 O   0  0  0  0  0  0  0  0  0  0  0  0
    8.5232   -5.6471    0.0000 O   0  0  0  0  0  0  0  0  0  0  0  0
    3.5219   -6.0596    0.0000 O   0  0  0  0  0  0  0  0  0  0  0  0
    9.2377   -4.4096    0.0000 O   0  0  0  0  0  0  0  0  0  0  0  0
    4.9508   -6.0596    0.0000 O   0  0  0  0  0  0  0  0  0  0  0  0
    6.3798   -6.0596    0.0000 O   0  0  0  0  0  0  0  0  0  0  0  0
    2.0929   -4.4096    0.0000 O   0  0  0  0  0  0  0  0  0  0  0  0
    7.8087   -6.0596    0.0000 O   0  0  0  0  0  0  0  0  0  0  0  0
    2.8075   -5.6471    0.0000 O   0  0  0  0  0  0  0  0  0  0  0  0
   10.6666    6.3154    0.0000 N   0  0  0  0  0  0  0  0  0  0  0  0
    6.3798   -1.9346    0.0000 C   0  0  0  0  0  0  0  0  0  0  0  0
    5.6654   -2.3471    0.0000 C   0  0  0  0  0  0  0  0  0  0  0  0
    7.0943   -0.6971    0.0000 C   0  0  0  0  0  0  0  0  0  0  0  0
    6.3798   -1.1096    0.0000 C   0  0  0  0  0  0  0  0  0  0  0  0
    4.9508   -1.9346    0.0000 C   0  0  0  0  0  0  0  0  0  0  0  0
    7.0943    0.1279    0.0000 C   0  0  0  0  0  0  0  0  0  0  0  0
    4.2364   -2.3471    0.0000 C   0  0  0  0  0  0  0  0  0  0  0  0
    7.8087    0.5404    0.0000 C   0  0  0  0  0  0  0  0  0  0  0  0
    7.8087   -1.1096    0.0000 C   0  0  0  0  0  0  0  0  0  0  0  0
    7.8087    1.3654    0.0000 C   0  0  0  0  0  0  0  0  0  0  0  0
    4.9508   -1.1096    0.0000 C   0  0  0  0  0  0  0  0  0  0  0  0
    3.5219   -1.9346    0.0000 C   0  0  0  0  0  0  0  0  0  0  0  0
    8.5232    1.7779    0.0000 C   0  0  0  0  0  0  0  0  0  0  0  0
    8.5232    2.6029    0.0000 C   0  0  0  0  0  0  0  0  0  0  0  0
    2.8075   -2.3471    0.0000 C   0  0  0  0  0  0  0  0  0  0  0  0
    9.2377    3.0154    0.0000 C   0  0  0  0  0  0  0  0  0  0  0  0
    9.2377    3.8404    0.0000 C   0  0  0  0  0  0  0  0  0  0  0  0
    7.0943   -3.1721    0.0000 C   0  0  0  0  0  0  0  0  0  0  0  0
    4.9508   -3.5846    0.0000 C   0  0  0  0  0  0  0  0  0  0  0  0
    9.9521    4.2529    0.0000 C   0  0  0  0  0  0  0  0  0  0  0  0
    7.8087   -3.5846    0.0000 C   0  0  0  0  0  0  0  0  0  0  0  0
    4.9508   -4.4096    0.0000 C   0  0  0  0  0  0  0  0  0  0  0  0
    9.9521    5.0779    0.0000 C   0  0  0  0  0  0  0  0  0  0  0  0
    2.0929   -1.9346    0.0000 C   0  0  0  0  0  0  0  0  0  0  0  0
    7.8087   -4.4096    0.0000 C   0  0  0  0  0  0  0  0  0  0  0  0
    4.2364   -4.8221    0.0000 C   0  0  0  0  0  0  0  0  0  0  0  0
   10.6666    5.4904    0.0000 C   0  0  0  0  0  0  0  0  0  0  0  0
    7.0943   -4.8221    0.0000 C   0  0  0  0  0  0  0  0  0  0  0  0
    3.5219   -4.4096    0.0000 C   0  0  0  0  0  0  0  0  0  0  0  0
   11.3811    5.0779    0.0000 C   0  0  0  0  0  0  0  0  0  0  0  0
    8.5232   -4.8221    0.0000 C   0  0  0  0  0  0  0  0  0  0  0  0
    4.2364   -5.6471    0.0000 C   0  0  0  0  0  0  0  0  0  0  0  0
    7.0943   -5.6471    0.0000 C   0  0  0  0  0  0  0  0  0  0  0  0
    2.8075   -4.8221    0.0000 C   0  0  0  0  0  0  0  0  0  0  0  0
  1 17  1  0  0  0  0 
  1 34  1  0  0  0  0 
  2 18  1  0  0  0  0 
  2 35  1  0  0  0  0 
  3 24  1  0  0  0  0 
  4 33  1  0  0  0  0 
  5 34  2  0  0  0  0 
  6 35  2  0  0  0  0 
  7 39  1  0  0  0  0 
  8 47  1  0  0  0  0 
  9 48  1  0  0  0  0 
 10 47  2  0  0  0  0 
 11 48  2  0  0  0  0 
 12 49  1  0  0  0  0 
 13 50  1  0  0  0  0 
 14 49  2  0  0  0  0 
 15 50  2  0  0  0  0 
 16 43  1  0  0  0  0 
 17 18  1  0  0  0  0 
 17 20  1  0  0  0  0 
 18 21  1  0  0  0  0 
 19 20  1  0  0  0  0 
 19 22  1  0  0  0  0 
 19 25  1  0  0  0  0 
 21 23  1  0  0  0  0 
 21 27  1  0  0  0  0 
 22 24  1  0  0  0  0 
 23 28  1  0  0  0  0 
 24 26  1  0  0  0  0 
 26 29  1  0  0  0  0 
 28 31  1  0  0  0  0 
 29 30  1  0  0  0  0 
 30 32  1  0  0  0  0 
 31 40  1  0  0  0  0 
 32 33  1  0  0  0  0 
 33 36  1  0  0  0  0 
 34 37  1  0  0  0  0 
 35 38  1  0  0  0  0 
 36 39  1  0  0  0  0 
 37 41  1  0  0  0  0 
 38 42  1  0  0  0  0 
 39 43  1  0  0  0  0 
 41 44  1  0  0  0  0 
 41 47  1  0  0  0  0 
 42 45  1  0  0  0  0 
 42 48  1  0  0  0  0 
 43 46  1  0  0  0  0 
 44 49  1  0  0  0  0 
 45 50  1  0  0  0  0 
M  END
> <ID>
CHEBI:185259

> <NAME>
2-[2-({19-amino-6-[(3,4-dicarboxybutanoyl)oxy]-11,16,18-trihydroxy-5,9-dimethylicosan-7-yl}oxy)-2-oxoethyl]butanedioic acid

$$$$
5486187
  CDK     1203211124

 52 51  0  0  0  0  0  0  0  0999 V2000
    7.0943   -2.8380    0.0000 O   0  0  0  0  0  0  0  0  0  0  0  0
    5.6654   -3.6630    0.0000 O   0  0  0  0  0  0  0  0  0  0  0  0
    8.5232    3.7620    0.0000 O   0  0  0  0  0  0  0  0  0  0  0  0
    6.3798   -4.0755    0.0000 O   0  0  0  0  0  0  0  0  0  0  0  0
    4.2364   -3.6630    0.0000 O   0  0  0  0  0  0  0  0  0  0  0  0
    9.2377    4.9995    0.0000 O   0  0  0  0  0  0  0  0  0  0  0  0
    8.5232   -6.1380    0.0000 O   0  0  0  0  0  0  0  0  0  0  0  0
    3.5219   -6.5505    0.0000 O   0  0  0  0  0  0  0  0  0  0  0  0
    9.2377   -4.9005    0.0000 O   0  0  0  0  0  0  0  0  0  0  0  0
    4.9508   -6.5505    0.0000 O   0  0  0  0  0  0  0  0  0  0  0  0
    6.3798   -6.5505    0.0000 O   0  0  0  0  0  0  0  0  0  0  0  0
    2.0929   -4.9005    0.0000 O   0  0  0  0  0  0  0  0  0  0  0  0
    7.8087   -6.5505    0.0000 O   0  0  0  0  0  0  0  0  0  0  0  0
    2.8075   -6.1380    0.0000 O   0  0  0  0  0  0  0  0  0  0  0  0
   12.0956    5.8245    0.0000 O   0  0  0  0  0  0  0  0  0  0  0  0
   10.6666    5.8245    0.0000 N   0  0  0  0  0  0  0  0  0  0  0  0
    6.3798   -2.4255    0.0000 C   0  0  2  0  0  0  0  0  0  0  0  0
    5.6654   -2.8380    0.0000 C   0  0  1  0  0  0  0  0  0  0  0  0
    6.3798   -1.6005    0.0000 C   0  0  0  0  0  0  0  0  0  0  0  0
    7.0943   -1.1880    0.0000 C   0  0  2  0  0  0  0  0  0  0  0  0
    4.9508   -2.4255    0.0000 C   0  0  1  0  0  0  0  0  0  0  0  0
    7.0943   -0.3630    0.0000 C   0  0  0  0  0  0  0  0  0  0  0  0
    4.2364   -2.8380    0.0000 C   0  0  0  0  0  0  0  0  0  0  0  0
    7.8087    0.0495    0.0000 C   0  0  0  0  0  0  0  0  0  0  0  0
    7.8087   -1.6005    0.0000 C   0  0  0  0  0  0  0  0  0  0  0  0
    4.9508   -1.6005    0.0000 C   0  0  0  0  0  0  0  0  0  0  0  0
    7.8087    0.8745    0.0000 C   0  0  0  0  0  0  0  0  0  0  0  0
    3.5219   -2.4255    0.0000 C   0  0  0  0  0  0  0  0  0  0  0  0
    8.5232    1.2870    0.0000 C   0  0  0  0  0  0  0  0  0  0  0  0
    8.5232    2.1120    0.0000 C   0  0  0  0  0  0  0  0  0  0  0  0
    2.8075   -2.8380    0.0000 C   0  0  0  0  0  0  0  0  0  0  0  0
    9.2377    2.5245    0.0000 C   0  0  0  0  0  0  0  0  0  0  0  0
    9.2377    3.3495    0.0000 C   0  0  1  0  0  0  0  0  0  0  0  0
    7.0943   -3.6630    0.0000 C   0  0  0  0  0  0  0  0  0  0  0  0
    4.9508   -4.0755    0.0000 C   0  0  0  0  0  0  0  0  0  0  0  0
    9.9521    3.7620    0.0000 C   0  0  0  0  0  0  0  0  0  0  0  0
    7.8087   -4.0755    0.0000 C   0  0  0  0  0  0  0  0  0  0  0  0
    4.9508   -4.9005    0.0000 C   0  0  0  0  0  0  0  0  0  0  0  0
    9.9521    4.5870    0.0000 C   0  0  2  0  0  0  0  0  0  0  0  0
    2.0929   -2.4255    0.0000 C   0  0  0  0  0  0  0  0  0  0  0  0
   10.6666    4.9995    0.0000 C   0  0  1  0  0  0  0  0  0  0  0  0
    7.8087   -4.9005    0.0000 C   0  0  1  0  0  0  0  0  0  0  0  0
    4.2364   -5.3130    0.0000 C   0  0  1  0  0  0  0  0  0  0  0  0
    7.0943   -5.3130    0.0000 C   0  0  0  0  0  0  0  0  0  0  0  0
    3.5219   -4.9005    0.0000 C   0  0  0  0  0  0  0  0  0  0  0  0
   11.3811    4.5870    0.0000 C   0  0  0  0  0  0  0  0  0  0  0  0
    8.5232   -5.3130    0.0000 C   0  0  0  0  0  0  0  0  0  0  0  0
    4.2364   -6.1380    0.0000 C   0  0  0  0  0  0  0  0  0  0  0  0
    7.0943   -6.1380    0.0000 C   0  0  0  0  0  0  0  0  0  0  0  0
    2.8075   -5.3130    0.0000 C   0  0  0  0  0  0  0  0  0  0  0  0
   11.3811    6.2370    0.0000 C   0  0  0  0  0  0  0  0  0  0  0  0
   11.3811    7.0620    0.0000 C   0  0  0  0  0  0  0  0  0  0  0  0
 17  1  1  6  0  0  0 
  1 34  1  0  0  0  0 
 18  2  1  6  0  0  0 
  2 35  1  0  0  0  0 
 33  3  1  6  0  0  0 
  4 34  2  0  0  0  0 
  5 35  2  0  0  0  0 
 39  6  1  1  0  0  0 
  7 47  1  0  0  0  0 
  8 48  1  0  0  0  0 
  9 47  2  0  0  0  0 
 10 48  2  0  0  0  0 
 11 49  1  0  0  0  0 
 12 50  1  0  0  0  0 
 13 49  2  0  0  0  0 
 14 50  2  0  0  0  0 
 15 51  2  0  0  0  0 
 41 16  1  6  0  0  0 
 16 51  1  0  0  0  0 
 17 18  1  0  0  0  0 
 17 19  1  0  0  0  0 
 18 21  1  0  0  0  0 
 19 20  1  0  0  0  0 
 20 22  1  0  0  0  0 
 20 25  1  6  0  0  0 
 21 23  1  0  0  0  0 
 21 26  1  1  0  0  0 
 22 24  1  0  0  0  0 
 23 28  1  0  0  0  0 
 24 27  1  0  0  0  0 
 27 29  1  0  0  0  0 
 28 31  1  0  0  0  0 
 29 30  1  0  0  0  0 
 30 32  1  0  0  0  0 
 31 40  1  0  0  0  0 
 32 33  1  0  0  0  0 
 33 36  1  0  0  0  0 
 34 37  1  0  0  0  0 
 35 38  1  0  0  0  0 
 36 39  1  0  0  0  0 
 42 37  1  6  0  0  0 
 43 38  1  6  0  0  0 
 39 41  1  0  0  0  0 
 41 46  1  0  0  0  0 
 42 44  1  0  0  0  0 
 42 47  1  0  0  0  0 
 43 45  1  0  0  0  0 
 43 48  1  0  0  0  0 
 44 49  1  0  0  0  0 
 45 50  1  0  0  0  0 
 51 52  1  0  0  0  0 
M  END
> <ID>
CHEBI:187066

> <NAME>
Fumonisin A2

$$$$

CDK     1028232202

 48 47  0  0  0  0  0  0  0  0999 V2000
   12.1462   -1.6500    0.0000 O   0  0  0  0  0  0  0  0  0  0  0  0
   12.8608   -1.2375    0.0000 C   0  0  0  0  0  0  0  0  0  0  0  0
   13.5753   -1.6500    0.0000 O   0  0  0  0  0  0  0  0  0  0  0  0
   12.8608   -0.4125    0.0000 C   0  0  1  0  0  0  0  0  0  0  0  0
   12.1462    0.0000    0.0000 C   0  0  0  0  0  0  0  0  0  0  0  0
   13.5753    0.0000    0.0000 C   0  0  0  0  0  0  0  0  0  0  0  0
   11.4318   -0.4125    0.0000 C   0  0  0  0  0  0  0  0  0  0  0  0
   14.2897   -0.4125    0.0000 C   0  0  0  0  0  0  0  0  0  0  0  0
   11.4318   -1.2375    0.0000 O   0  0  0  0  0  0  0  0  0  0  0  0
   10.7173    0.0000    0.0000 O   0  0  0  0  0  0  0  0  0  0  0  0
   15.0042    0.0000    0.0000 O   0  0  0  0  0  0  0  0  0  0  0  0
   14.2897   -1.2375    0.0000 O   0  0  0  0  0  0  0  0  0  0  0  0
   10.0029   -0.4125    0.0000 C   0  0  1  0  0  0  0  0  0  0  0  0
    9.2883    0.0000    0.0000 C   0  0  1  0  0  0  0  0  0  0  0  0
   10.0029   -1.2375    0.0000 C   0  0  1  0  0  0  0  0  0  0  0  0
    9.2883    0.8250    0.0000 O   0  0  0  0  0  0  0  0  0  0  0  0
    8.5738   -0.4125    0.0000 C   0  0  0  0  0  0  0  0  0  0  0  0
    9.2883   -1.6500    0.0000 C   0  0  0  0  0  0  0  0  0  0  0  0
   10.7173   -1.6500    0.0000 C   0  0  0  0  0  0  0  0  0  0  0  0
   10.0029    1.2375    0.0000 C   0  0  0  0  0  0  0  0  0  0  0  0
    7.8594    0.0000    0.0000 C   0  0  2  0  0  0  0  0  0  0  0  0
    9.2883   -2.4751    0.0000 C   0  0  0  0  0  0  0  0  0  0  0  0
   10.7173    0.8250    0.0000 O   0  0  0  0  0  0  0  0  0  0  0  0
   10.0029    2.0625    0.0000 C   0  0  0  0  0  0  0  0  0  0  0  0
    7.1449   -0.4125    0.0000 C   0  0  0  0  0  0  0  0  0  0  0  0
    7.8594    0.8250    0.0000 C   0  0  0  0  0  0  0  0  0  0  0  0
    8.5738   -2.8876    0.0000 C   0  0  0  0  0  0  0  0  0  0  0  0
   10.7173    2.4751    0.0000 C   0  0  2  0  0  0  0  0  0  0  0  0
    6.4304    0.0000    0.0000 C   0  0  0  0  0  0  0  0  0  0  0  0
    8.5738   -3.7126    0.0000 C   0  0  0  0  0  0  0  0  0  0  0  0
   11.4318    2.0625    0.0000 C   0  0  0  0  0  0  0  0  0  0  0  0
   10.7173    3.3001    0.0000 C   0  0  0  0  0  0  0  0  0  0  0  0
    5.7159   -0.4125    0.0000 C   0  0  0  0  0  0  0  0  0  0  0  0
   11.4318    1.2375    0.0000 O   0  0  0  0  0  0  0  0  0  0  0  0
   12.1462    2.4751    0.0000 O   0  0  0  0  0  0  0  0  0  0  0  0
   11.4318    3.7126    0.0000 C   0  0  0  0  0  0  0  0  0  0  0  0
    5.0014    0.0000    0.0000 C   0  0  0  0  0  0  0  0  0  0  0  0
   12.1462    3.3001    0.0000 O   0  0  0  0  0  0  0  0  0  0  0  0
   11.4318    4.5376    0.0000 O   0  0  0  0  0  0  0  0  0  0  0  0
    4.2870   -0.4125    0.0000 C   0  0  0  0  0  0  0  0  0  0  0  0
    3.5724    0.0000    0.0000 C   0  0  0  0  0  0  0  0  0  0  0  0
    2.8579   -0.4125    0.0000 C   0  0  0  0  0  0  0  0  0  0  0  0
    2.1435    0.0000    0.0000 C   0  0  0  0  0  0  0  0  0  0  0  0
    1.4290   -0.4125    0.0000 C   0  0  1  0  0  0  0  0  0  0  0  0
    1.4290   -1.2375    0.0000 O   0  0  0  0  0  0  0  0  0  0  0  0
    0.7145    0.0000    0.0000 C   0  0  1  0  0  0  0  0  0  0  0  0
    0.7145    0.8250    0.0000 N   0  0  0  0  0  0  0  0  0  0  0  0
    0.0000   -0.4125    0.0000 C   0  0  0  0  0  0  0  0  0  0  0  0
  1  2  2  0  0  0  0 
  2  3  1  0  0  0  0 
  4  2  1  0  0  0  0 
  4  5  1  1  0  0  0 
  4  6  1  0  0  0  0 
  5  7  1  0  0  0  0 
  6  8  1  0  0  0  0 
  7  9  2  0  0  0  0 
  7 10  1  0  0  0  0 
  8 11  2  0  0  0  0 
  8 12  1  0  0  0  0 
 13 10  1  6  0  0  0 
 14 13  1  0  0  0  0 
 15 13  1  0  0  0  0 
 14 16  1  6  0  0  0 
 14 17  1  0  0  0  0 
 15 18  1  0  0  0  0 
 15 19  1  6  0  0  0 
 16 20  1  0  0  0  0 
 21 17  1  0  0  0  0 
 18 22  1  0  0  0  0 
 20 23  2  0  0  0  0 
 20 24  1  0  0  0  0 
 21 25  1  0  0  0  0 
 21 26  1  6  0  0  0 
 22 27  1  0  0  0  0 
 28 24  1  1  0  0  0 
 25 29  1  0  0  0  0 
 27 30  1  0  0  0  0 
 28 31  1  0  0  0  0 
 28 32  1  0  0  0  0 
 29 33  1  0  0  0  0 
 31 34  2  0  0  0  0 
 31 35  1  0  0  0  0 
 32 36  1  0  0  0  0 
 33 37  1  0  0  0  0 
 36 38  2  0  0  0  0 
 36 39  1  0  0  0  0 
 37 40  1  0  0  0  0 
 40 41  1  0  0  0  0 
 41 42  1  0  0  0  0 
 42 43  1  0  0  0  0 
 44 43  1  0  0  0  0 
 44 45  1  1  0  0  0 
 46 44  1  0  0  0  0 
 46 47  1  6  0  0  0 
 46 48  1  0  0  0  0 
M  END
> <ID>
CHEBI:199203

> <NAME>
Epi-Fumonisin B4

$$$$

CDK     1028232202

 49 48  0  0  0  0  0  0  0  0999 V2000
   12.1460   -1.6500    0.0000 O   0  0  0  0  0  0  0  0  0  0  0  0
   12.8605   -1.2375    0.0000 C   0  0  0  0  0  0  0  0  0  0  0  0
   13.5749   -1.6500    0.0000 O   0  0  0  0  0  0  0  0  0  0  0  0
   12.8605   -0.4125    0.0000 C   0  0  1  0  0  0  0  0  0  0  0  0
   12.1460    0.0000    0.0000 C   0  0  0  0  0  0  0  0  0  0  0  0
   13.5749    0.0000    0.0000 C   0  0  0  0  0  0  0  0  0  0  0  0
   11.4315   -0.4125    0.0000 C   0  0  0  0  0  0  0  0  0  0  0  0
   14.2894   -0.4125    0.0000 C   0  0  0  0  0  0  0  0  0  0  0  0
   11.4315   -1.2375    0.0000 O   0  0  0  0  0  0  0  0  0  0  0  0
   10.7171    0.0000    0.0000 O   0  0  0  0  0  0  0  0  0  0  0  0
   15.0039    0.0000    0.0000 O   0  0  0  0  0  0  0  0  0  0  0  0
   14.2894   -1.2375    0.0000 O   0  0  0  0  0  0  0  0  0  0  0  0
   10.0026   -0.4125    0.0000 C   0  0  1  0  0  0  0  0  0  0  0  0
    9.2881    0.0000    0.0000 C   0  0  1  0  0  0  0  0  0  0  0  0
   10.0026   -1.2375    0.0000 C   0  0  1  0  0  0  0  0  0  0  0  0
    9.2881    0.8250    0.0000 O   0  0  0  0  0  0  0  0  0  0  0  0
    8.5737   -0.4125    0.0000 C   0  0  0  0  0  0  0  0  0  0  0  0
    9.2881   -1.6500    0.0000 C   0  0  0  0  0  0  0  0  0  0  0  0
   10.7171   -1.6500    0.0000 C   0  0  0  0  0  0  0  0  0  0  0  0
   10.0026    1.2375    0.0000 C   0  0  0  0  0  0  0  0  0  0  0  0
    7.8592    0.0000    0.0000 C   0  0  2  0  0  0  0  0  0  0  0  0
    9.2881   -2.4750    0.0000 C   0  0  0  0  0  0  0  0  0  0  0  0
   10.7171    0.8250    0.0000 O   0  0  0  0  0  0  0  0  0  0  0  0
   10.0026    2.0625    0.0000 C   0  0  0  0  0  0  0  0  0  0  0  0
    7.1447   -0.4125    0.0000 C   0  0  0  0  0  0  0  0  0  0  0  0
    7.8592    0.8250    0.0000 C   0  0  0  0  0  0  0  0  0  0  0  0
    8.5737   -2.8875    0.0000 C   0  0  0  0  0  0  0  0  0  0  0  0
   10.7171    2.4750    0.0000 C   0  0  2  0  0  0  0  0  0  0  0  0
    6.4302    0.0000    0.0000 C   0  0  2  0  0  0  0  0  0  0  0  0
    8.5737   -3.7125    0.0000 C   0  0  0  0  0  0  0  0  0  0  0  0
   11.4315    2.0625    0.0000 C   0  0  0  0  0  0  0  0  0  0  0  0
   10.7171    3.3000    0.0000 C   0  0  0  0  0  0  0  0  0  0  0  0
    6.4302    0.8250    0.0000 O   0  0  0  0  0  0  0  0  0  0  0  0
    5.7158   -0.4125    0.0000 C   0  0  0  0  0  0  0  0  0  0  0  0
   11.4315    1.2375    0.0000 O   0  0  0  0  0  0  0  0  0  0  0  0
   12.1460    2.4750    0.0000 O   0  0  0  0  0  0  0  0  0  0  0  0
   11.4315    3.7125    0.0000 C   0  0  0  0  0  0  0  0  0  0  0  0
    5.0013    0.0000    0.0000 C   0  0  0  0  0  0  0  0  0  0  0  0
   12.1460    3.3000    0.0000 O   0  0  0  0  0  0  0  0  0  0  0  0
   11.4315    4.5375    0.0000 O   0  0  0  0  0  0  0  0  0  0  0  0
    4.2868   -0.4125    0.0000 C   0  0  0  0  0  0  0  0  0  0  0  0
    3.5724    0.0000    0.0000 C   0  0  0  0  0  0  0  0  0  0  0  0
    2.8579   -0.4125    0.0000 C   0  0  0  0  0  0  0  0  0  0  0  0
    2.1434    0.0000    0.0000 C   0  0  0  0  0  0  0  0  0  0  0  0
    1.4290   -0.4125    0.0000 C   0  0  1  0  0  0  0  0  0  0  0  0
    1.4290   -1.2375    0.0000 O   0  0  0  0  0  0  0  0  0  0  0  0
    0.7144    0.0000    0.0000 C   0  0  1  0  0  0  0  0  0  0  0  0
    0.7144    0.8250    0.0000 N   0  0  0  0  0  0  0  0  0  0  0  0
    0.0000   -0.4125    0.0000 C   0  0  0  0  0  0  0  0  0  0  0  0
  1  2  2  0  0  0  0 
  2  3  1  0  0  0  0 
  4  2  1  0  0  0  0 
  4  5  1  1  0  0  0 
  4  6  1  0  0  0  0 
  5  7  1  0  0  0  0 
  6  8  1  0  0  0  0 
  7  9  2  0  0  0  0 
  7 10  1  0  0  0  0 
  8 11  2  0  0  0  0 
  8 12  1  0  0  0  0 
 13 10  1  6  0  0  0 
 14 13  1  0  0  0  0 
 15 13  1  0  0  0  0 
 14 16  1  6  0  0  0 
 14 17  1  0  0  0  0 
 15 18  1  0  0  0  0 
 15 19  1  6  0  0  0 
 16 20  1  0  0  0  0 
 21 17  1  0  0  0  0 
 18 22  1  0  0  0  0 
 20 23  2  0  0  0  0 
 20 24  1  0  0  0  0 
 21 25  1  0  0  0  0 
 21 26  1  6  0  0  0 
 22 27  1  0  0  0  0 
 28 24  1  1  0  0  0 
 29 25  1  0  0  0  0 
 27 30  1  0  0  0  0 
 28 31  1  0  0  0  0 
 28 32  1  0  0  0  0 
 29 33  1  1  0  0  0 
 29 34  1  0  0  0  0 
 31 35  2  0  0  0  0 
 31 36  1  0  0  0  0 
 32 37  1  0  0  0  0 
 34 38  1  0  0  0  0 
 37 39  2  0  0  0  0 
 37 40  1  0  0  0  0 
 38 41  1  0  0  0  0 
 41 42  1  0  0  0  0 
 42 43  1  0  0  0  0 
 43 44  1  0  0  0  0 
 45 44  1  0  0  0  0 
 45 46  1  1  0  0  0 
 47 45  1  0  0  0  0 
 47 48  1  6  0  0  0 
 47 49  1  0  0  0  0 
M  END
> <ID>
CHEBI:199308

> <NAME>
Epi-Fumonisin B3

$$$$

CDK     1030232202

 50 49  0  0  0  0  0  0  0  0999 V2000
   12.1460   -1.6500    0.0000 O   0  0  0  0  0  0  0  0  0  0  0  0
   12.8605   -1.2375    0.0000 C   0  0  0  0  0  0  0  0  0  0  0  0
   13.5749   -1.6500    0.0000 O   0  0  0  0  0  0  0  0  0  0  0  0
   12.8605   -0.4125    0.0000 C   0  0  0  0  0  0  0  0  0  0  0  0
   12.1460    0.0000    0.0000 C   0  0  0  0  0  0  0  0  0  0  0  0
   13.5749    0.0000    0.0000 C   0  0  0  0  0  0  0  0  0  0  0  0
   11.4315   -0.4125    0.0000 C   0  0  0  0  0  0  0  0  0  0  0  0
   14.2894   -0.4125    0.0000 C   0  0  0  0  0  0  0  0  0  0  0  0
   11.4315   -1.2375    0.0000 O   0  0  0  0  0  0  0  0  0  0  0  0
   10.7171    0.0000    0.0000 O   0  0  0  0  0  0  0  0  0  0  0  0
   15.0039    0.0000    0.0000 O   0  0  0  0  0  0  0  0  0  0  0  0
   14.2894   -1.2375    0.0000 O   0  0  0  0  0  0  0  0  0  0  0  0
   10.0026   -0.4125    0.0000 C   0  0  1  0  0  0  0  0  0  0  0  0
    9.2881    0.0000    0.0000 C   0  0  1  0  0  0  0  0  0  0  0  0
   10.0026   -1.2375    0.0000 C   0  0  1  0  0  0  0  0  0  0  0  0
    9.2881    0.8250    0.0000 O   0  0  0  0  0  0  0  0  0  0  0  0
    8.5737   -0.4125    0.0000 C   0  0  0  0  0  0  0  0  0  0  0  0
    9.2881   -1.6500    0.0000 C   0  0  0  0  0  0  0  0  0  0  0  0
   10.7171   -1.6500    0.0000 C   0  0  0  0  0  0  0  0  0  0  0  0
   10.0026    1.2375    0.0000 C   0  0  0  0  0  0  0  0  0  0  0  0
    7.8592    0.0000    0.0000 C   0  0  2  0  0  0  0  0  0  0  0  0
    9.2881   -2.4750    0.0000 C   0  0  0  0  0  0  0  0  0  0  0  0
   10.7171    0.8250    0.0000 O   0  0  0  0  0  0  0  0  0  0  0  0
   10.0026    2.0625    0.0000 C   0  0  0  0  0  0  0  0  0  0  0  0
    7.1447   -0.4125    0.0000 C   0  0  0  0  0  0  0  0  0  0  0  0
    7.8592    0.8250    0.0000 C   0  0  0  0  0  0  0  0  0  0  0  0
    8.5737   -2.8875    0.0000 C   0  0  0  0  0  0  0  0  0  0  0  0
   10.7171    2.4750    0.0000 C   0  0  0  0  0  0  0  0  0  0  0  0
    6.4302    0.0000    0.0000 C   0  0  2  0  0  0  0  0  0  0  0  0
    8.5737   -3.7125    0.0000 C   0  0  0  0  0  0  0  0  0  0  0  0
   11.4315    2.0625    0.0000 C   0  0  0  0  0  0  0  0  0  0  0  0
   10.7171    3.3000    0.0000 C   0  0  0  0  0  0  0  0  0  0  0  0
    6.4302    0.8250    0.0000 O   0  0  0  0  0  0  0  0  0  0  0  0
    5.7158   -0.4125    0.0000 C   0  0  0  0  0  0  0  0  0  0  0  0
   11.4315    1.2375    0.0000 O   0  0  0  0  0  0  0  0  0  0  0  0
   12.1460    2.4750    0.0000 O   0  0  0  0  0  0  0  0  0  0  0  0
   11.4315    3.7125    0.0000 C   0  0  0  0  0  0  0  0  0  0  0  0
    5.0013    0.0000    0.0000 C   0  0  0  0  0  0  0  0  0  0  0  0
   12.1460    3.3000    0.0000 O   0  0  0  0  0  0  0  0  0  0  0  0
   11.4315    4.5375    0.0000 O   0  0  0  0  0  0  0  0  0  0  0  0
    4.2868   -0.4125    0.0000 C   0  0  0  0  0  0  0  0  0  0  0  0
    3.5724    0.0000    0.0000 C   0  0  0  0  0  0  0  0  0  0  0  0
    2.8579   -0.4125    0.0000 C   0  0  0  0  0  0  0  0  0  0  0  0
    2.1434    0.0000    0.0000 C   0  0  1  0  0  0  0  0  0  0  0  0
    2.1434    0.8250    0.0000 O   0  0  0  0  0  0  0  0  0  0  0  0
    1.4290   -0.4125    0.0000 C   0  0  2  0  0  0  0  0  0  0  0  0
    1.4290   -1.2375    0.0000 O   0  0  0  0  0  0  0  0  0  0  0  0
    0.7144    0.0000    0.0000 C   0  0  1  0  0  0  0  0  0  0  0  0
    0.7144    0.8250    0.0000 N   0  0  0  0  0  0  0  0  0  0  0  0
    0.0000   -0.4125    0.0000 C   0  0  0  0  0  0  0  0  0  0  0  0
  1  2  2  0  0  0  0 
  2  3  1  0  0  0  0 
  2  4  1  0  0  0  0 
  4  5  1  0  0  0  0 
  4  6  1  0  0  0  0 
  5  7  1  0  0  0  0 
  6  8  1  0  0  0  0 
  7  9  2  0  0  0  0 
  7 10  1  0  0  0  0 
  8 11  2  0  0  0  0 
  8 12  1  0  0  0  0 
 13 10  1  6  0  0  0 
 14 13  1  0  0  0  0 
 15 13  1  0  0  0  0 
 14 16  1  6  0  0  0 
 14 17  1  0  0  0  0 
 15 18  1  0  0  0  0 
 15 19  1  6  0  0  0 
 16 20  1  0  0  0  0 
 21 17  1  0  0  0  0 
 18 22  1  0  0  0  0 
 20 23  2  0  0  0  0 
 20 24  1  0  0  0  0 
 21 25  1  0  0  0  0 
 21 26  1  6  0  0  0 
 22 27  1  0  0  0  0 
 24 28  1  0  0  0  0 
 29 25  1  0  0  0  0 
 27 30  1  0  0  0  0 
 28 31  1  0  0  0  0 
 28 32  1  0  0  0  0 
 29 33  1  1  0  0  0 
 29 34  1  0  0  0  0 
 31 35  2  0  0  0  0 
 31 36  1  0  0  0  0 
 32 37  1  0  0  0  0 
 34 38  1  0  0  0  0 
 37 39  2  0  0  0  0 
 37 40  1  0  0  0  0 
 38 41  1  0  0  0  0 
 41 42  1  0  0  0  0 
 42 43  1  0  0  0  0 
 44 43  1  0  0  0  0 
 44 45  1  6  0  0  0 
 46 44  1  0  0  0  0 
 46 47  1  6  0  0  0 
 48 46  1  0  0  0  0 
 48 49  1  6  0  0  0 
 48 50  1  0  0  0  0 
M  END
> <ID>
CHEBI:216873

> <NAME>
Iso-fumonisin B1

$$$$

Ketcher 02012116072D 1   1.00000     0.00000     0

 13 12  0     0  0            999 V2000
    9.3349   -7.8915    0.0000 C   0  0  0  0  0  0  0  0  0  0  0  0
   10.3334   -7.8988    0.0000 C   0  0  0  0  0  0  0  0  0  0  0  0
    8.3322   -7.8915    0.0000 C   0  0  0  0  0  0  0  0  0  0  0  0
   10.8368   -8.7654    0.0000 C   0  0  0  0  0  0  0  0  0  0  0  0
    7.3280   -7.8857    0.0000 C   0  0  0  0  0  0  0  0  0  0  0  0
   11.8354   -8.7727    0.0000 C   0  0  0  0  0  0  0  0  0  0  0  0
    6.3253   -7.8856    0.0000 C   0  0  0  0  0  0  0  0  0  0  0  0
   12.3316   -9.6351    0.0000 C   0  0  0  0  0  0  0  0  0  0  0  0
    5.3304   -7.8803    0.0000 C   0  0  0  0  0  0  0  0  0  0  0  0
   13.3337   -9.6445    0.0000 C   0  0  0  0  0  0  0  0  0  0  0  0
    4.8270   -7.0138    0.0000 C   0  0  0  0  0  0  0  0  0  0  0  0
   13.8334  -10.5089    0.0000 C   0  0  0  0  0  0  0  0  0  0  0  0
    3.8285   -7.0065    0.0000 C   0  0  0  0  0  0  0  0  0  0  0  0
  1  2  1  0     0  0
  1  3  3  0     0  0
  2  4  2  0     0  0
  3  5  1  0     0  0
  4  6  1  0     0  0
  5  7  3  0     0  0
  6  8  2  0     0  0
  7  9  1  0     0  0
  8 10  1  0     0  0
  9 11  2  0     0  0
 10 12  1  0     0  0
 11 13  1  0     0  0
M  END
> <ID>
CHEBI:2501

> <NAME>
aethusin

$$$$

Marvin  02120600002D          

 25 29  0  0  1  0            999 V2000
   -0.6920   -0.3228    0.0000 C   0  0  0  0  0  0  0  0  0  0  0  0
    0.0225    0.0897    0.0000 C   0  0  0  0  0  0  0  0  0  0  0  0
   -1.4766   -0.0678    0.0000 C   0  0  1  0  0  0  0  0  0  0  0  0
   -0.6920   -1.1478    0.0000 C   0  0  0  0  0  0  0  0  0  0  0  0
    0.7370   -0.3228    0.0000 C   0  0  0  0  0  0  0  0  0  0  0  0
    0.0225    0.9147    0.0000 O   0  0  0  0  0  0  0  0  0  0  0  0
   -1.9615   -0.7353    0.0000 C   0  0  1  0  0  0  0  0  0  0  0  0
   -1.9615    0.5996    0.0000 C   0  0  0  0  0  0  0  0  0  0  0  0
    0.0225   -1.5603    0.0000 C   0  0  0  0  0  0  0  0  0  0  0  0
   -1.4766   -1.4027    0.0000 O   0  0  0  0  0  0  0  0  0  0  0  0
    1.4514    0.0897    0.0000 C   0  0  0  0  0  0  0  0  0  0  0  0
    0.7370   -1.1478    0.0000 C   0  0  0  0  0  0  0  0  0  0  0  0
    0.7370    1.3272    0.0000 C   0  0  0  0  0  0  0  0  0  0  0  0
   -2.7461   -0.4803    0.0000 O   0  0  0  0  0  0  0  0  0  0  0  0
   -2.7461    0.3447    0.0000 C   0  0  0  0  0  0  0  0  0  0  0  0
    1.4514    0.9147    0.0000 C   0  0  0  0  0  0  0  0  0  0  0  0
    2.2361   -0.1652    0.0000 C   0  0  0  0  0  0  0  0  0  0  0  0
    1.4514   -1.5603    0.0000 O   0  0  0  0  0  0  0  0  0  0  0  0
    0.7370    2.1522    0.0000 O   0  0  0  0  0  0  0  0  0  0  0  0
    2.2361    1.1697    0.0000 C   0  0  0  0  0  0  0  0  0  0  0  0
    2.7210    0.5022    0.0000 C   0  0  0  0  0  0  0  0  0  0  0  0
    2.1659   -1.1478    0.0000 C   0  0  0  0  0  0  0  0  0  0  0  0
    2.4910    1.9543    0.0000 O   0  0  0  0  0  0  0  0  0  0  0  0
   -0.9917    0.5996    0.0000 H   0  0  0  0  0  0  0  0  0  0  0  0
   -2.4464   -1.4027    0.0000 H   0  0  0  0  0  0  0  0  0  0  0  0
  1  2  2  0  0  0  0
  1  3  1  0  0  0  0
  1  4  1  0  0  0  0
  2  5  1  0  0  0  0
  2  6  1  0  0  0  0
  3  7  1  0  0  0  0
  3  8  1  0  0  0  0
  4  9  2  0  0  0  0
  4 10  1  0  0  0  0
  5 11  1  0  0  0  0
  5 12  2  0  0  0  0
  6 13  1  0  0  0  0
  7 14  1  0  0  0  0
  8 15  2  0  0  0  0
 11 16  2  0  0  0  0
 11 17  1  0  0  0  0
 12 18  1  0  0  0  0
 13 19  2  0  0  0  0
 16 20  1  0  0  0  0
 17 21  1  0  0  0  0
 18 22  1  0  0  0  0
 20 23  2  0  0  0  0
  7 10  1  0  0  0  0
  9 12  1  0  0  0  0
 13 16  1  0  0  0  0
 14 15  1  0  0  0  0
 20 21  1  0  0  0  0
  3 24  1  6  0  0  0
  7 25  1  6  0  0  0
M  END
> <ID>
CHEBI:2504

> <NAME>
aflatoxin B1

$$$$

Marvin  10050712022D          

 52 59  0  0  1  0            999 V2000
    6.6452   -3.9687    0.0000 C   0  0  2  0  0  0  0  0  0  0  0  0
    6.6452   -3.1437    0.0000 C   0  0  2  0  0  0  0  0  0  0  0  0
    7.2902   -4.4830    0.0000 C   0  0  1  0  0  0  0  0  0  0  0  0
    7.2901   -2.6293    0.0000 C   0  0  1  0  0  0  0  0  0  0  0  0
    8.0945   -4.2993    0.0000 C   0  0  2  0  0  0  0  0  0  0  0  0
    8.4524   -3.5560    0.0000 C   0  0  1  0  0  0  0  0  0  0  0  0
    8.0944   -2.8127    0.0000 C   0  0  1  0  0  0  0  0  0  0  0  0
    5.9307   -4.3812    0.0000 C   0  0  1  0  0  0  0  0  0  0  0  0
    5.2162   -3.9686    0.0000 C   0  0  0  0  0  0  0  0  0  0  0  0
    5.9308   -2.7312    0.0000 C   0  0  2  0  0  0  0  0  0  0  0  0
    5.2163   -3.1436    0.0000 C   0  0  0  0  0  0  0  0  0  0  0  0
    7.2161   -1.8076    0.0000 C   0  0  0  0  0  0  0  0  0  0  0  0
    7.9746   -1.4833    0.0000 C   0  0  1  0  0  0  0  0  0  0  0  0
    8.5174   -2.1044    0.0000 C   0  0  0  0  0  0  0  0  0  0  0  0
    5.9308   -1.9062    0.0000 O   0  0  0  0  0  0  0  0  0  0  0  0
    6.6549   -2.2943    0.0000 C   0  0  1  0  0  0  0  0  0  0  0  0
    7.0163   -5.2406    0.0000 O   0  0  0  0  0  0  0  0  0  0  0  0
    7.5820   -5.9242    0.0000 C   0  0  0  0  0  0  0  0  0  0  0  0
    9.0591   -4.1564    0.0000 O   0  0  0  0  0  0  0  0  0  0  0  0
    9.4991   -2.8521    0.0000 C   0  0  0  0  0  0  0  0  0  0  0  0
    8.9805   -1.4064    0.0000 C   0  0  2  0  0  0  0  0  0  0  0  0
   10.2613   -1.8464    0.0000 O   0  0  0  0  0  0  0  0  0  0  0  0
    7.9277   -0.7228    0.0000 H   0  0  0  0  0  0  0  0  0  0  0  0
    9.3027   -0.6679    0.0000 O   0  0  0  0  0  0  0  0  0  0  0  0
    8.6898   -0.1807    0.0000 C   0  0  0  0  0  0  0  0  0  0  0  0
    5.1070   -1.4300    0.0000 C   0  0  0  0  0  0  0  0  0  0  0  0
    5.5819   -5.1284    0.0000 C   0  0  0  0  0  0  0  0  0  0  0  0
    5.6111   -3.5705    0.0000 N   0  0  0  0  0  0  0  0  0  0  0  0
    4.6356   -3.1271    0.0000 C   0  0  0  0  0  0  0  0  0  0  0  0
    4.0228   -3.7163    0.0000 C   0  0  0  0  0  0  0  0  0  0  0  0
    6.2149   -5.3585    0.0000 C   0  0  0  0  0  0  0  0  0  0  0  0
    6.6549   -4.8949    0.0000 H   0  0  0  0  0  0  0  0  0  0  0  0
    7.7549   -2.1214    0.0000 H   0  0  0  0  0  0  0  0  0  0  0  0
    8.9098   -2.7814    0.0000 H   0  0  0  0  0  0  0  0  0  0  0  0
    6.2070   -6.2227    0.0000 O   0  0  0  0  0  0  0  0  0  0  0  0
    6.2070   -7.9355    0.0000 C   0  0  0  0  0  0  0  0  0  0  0  0
    6.2070   -8.7605    0.0000 C   0  0  0  0  0  0  0  0  0  0  0  0
    5.4925   -7.5231    0.0000 C   0  0  0  0  0  0  0  0  0  0  0  0
    5.4925   -9.1730    0.0000 C   0  0  0  0  0  0  0  0  0  0  0  0
    4.7781   -7.9355    0.0000 C   0  0  0  0  0  0  0  0  0  0  0  0
    4.7781   -8.7605    0.0000 C   0  0  0  0  0  0  0  0  0  0  0  0
    5.4925   -6.6352    0.0000 C   0  0  0  0  0  0  0  0  0  0  0  0
    4.7781   -6.2227    0.0000 O   0  0  0  0  0  0  0  0  0  0  0  0
    8.5500   -4.9872    0.0000 O   0  0  0  0  0  0  0  0  0  0  0  0
    2.9837   -6.7385    0.0000 C   0  0  0  0  0  0  0  0  0  0  0  0
    3.8087   -6.7385    0.0000 C   0  0  0  0  0  0  0  0  0  0  0  0
    4.3920   -6.1552    0.0000 O   0  0  0  0  0  0  0  0  0  0  0  0
    3.3962   -8.0080    0.0000 C   0  0  0  0  0  0  0  0  0  0  0  0
    2.7287   -7.5231    0.0000 C   0  0  1  0  0  0  0  0  0  0  0  0
    1.9319   -7.7366    0.0000 C   0  0  0  0  0  0  0  0  0  0  0  0
    3.3962   -8.8330    0.0000 O   0  0  0  0  0  0  0  0  0  0  0  0
    4.0636   -7.5231    0.0000 N   0  0  0  0  0  0  0  0  0  0  0  0
  3  1  1  0  0  0  0
  5  3  1  0  0  0  0
  6  5  1  0  0  0  0
  7  6  1  0  0  0  0
  8  1  1  0  0  0  0
  2  1  1  0  0  0  0
 11 10  1  0  0  0  0
 12  4  1  0  0  0  0
  7  4  1  0  0  0  0
 13 12  1  0  0  0  0
 14  7  1  0  0  0  0
 14 13  1  0  0  0  0
 10 15  1  6  0  0  0
  2 16  1  6  0  0  0
  3 17  1  1  0  0  0
 18 17  1  0  0  0  0
  5 44  1  6  0  0  0
  6 19  1  1  0  0  0
 20  6  1  0  0  0  0
 21 13  1  0  0  0  0
 14 22  2  0  0  0  0
 20 21  1  0  0  0  0
 13 23  1  1  0  0  0
 21 24  1  1  0  0  0
 25 24  1  0  0  0  0
 26 15  1  0  0  0  0
  8 27  1  6  0  0  0
 28 27  1  0  0  0  0
 16 28  1  0  0  0  0
 29 28  1  0  0  0  0
 30 29  1  0  0  0  0
 10  2  1  0  0  0  0
  8 31  1  1  0  0  0
  5 16  1  0  0  0  0
  2  4  1  0  0  0  0
  1 32  1  1  0  0  0
  4 33  1  1  0  0  0
  7 34  1  1  0  0  0
 35 31  1  0  0  0  0
 37 36  1  0  0  0  0
 38 36  2  0  0  0  0
 39 37  2  0  0  0  0
 40 38  1  0  0  0  0
 41 39  1  0  0  0  0
 41 40  2  0  0  0  0
 42 38  1  0  0  0  0
 35 42  1  0  0  0  0
 43 42  2  0  0  0  0
 52 40  1  0  0  0  0
 48 52  1  0  0  0  0
 52 46  1  0  0  0  0
 48 49  1  0  0  0  0
 46 45  1  0  0  0  0
 45 49  1  0  0  0  0
 46 47  2  0  0  0  0
 48 51  2  0  0  0  0
 49 50  1  1  0  0  0
 11  9  1  0  0  0  0
  8  9  1  0  0  0  0
M  END
> <ID>
CHEBI:2992

> <NAME>
barbinine

$$$$

Ketcher 09301511222D 1   1.00000     0.00000     0

 44 47  0     1  0            999 V2000
   17.2551   -5.6269    0.0000 C   0  0  0  0  0  0  0  0  0  0  0  0
   16.4638   -6.0719    0.0000 O   0  0  0  0  0  0  0  0  0  0  0  0
   18.1454   -6.0719    0.0000 C   0  0  0  0  0  0  0  0  0  0  0  0
   18.8873   -5.6269    0.0000 O   0  0  0  0  0  0  0  0  0  0  0  0
   17.2551   -4.6377    0.0000 C   0  0  0  0  0  0  0  0  0  0  0  0
   15.6231   -5.6269    0.0000 C   0  0  0  0  0  0  0  0  0  0  0  0
   18.1454   -7.0610    0.0000 C   0  0  0  0  0  0  0  0  0  0  0  0
   19.7775   -7.0610    0.0000 C   0  0  0  0  0  0  0  0  0  0  0  0
   16.4638   -4.1431    0.0000 C   0  0  0  0  0  0  0  0  0  0  0  0
   17.8981   -3.8464    0.0000 C   0  0  0  0  0  0  0  0  0  0  0  0
   18.2442   -4.6377    0.0000 C   0  0  0  0  0  0  0  0  0  0  0  0
   15.6231   -4.6377    0.0000 C   0  0  0  0  0  0  0  0  0  0  0  0
   14.7823   -6.0719    0.0000 C   0  0  0  0  0  0  0  0  0  0  0  0
   15.6231   -6.7153    0.0000 O   0  0  0  0  0  0  0  0  0  0  0  0
   18.9366   -7.5061    0.0000 C   0  0  0  0  0  0  0  0  0  0  0  0
   17.3046   -7.5557    0.0000 O   0  0  0  0  0  0  0  0  0  0  0  0
   20.6183   -7.5061    0.0000 C   0  0  0  0  0  0  0  0  0  0  0  0
   14.7823   -4.1431    0.0000 C   0  0  0  0  0  0  0  0  0  0  0  0
   14.7823   -7.0610    0.0000 C   0  0  0  0  0  0  0  0  0  0  0  0
   18.9862   -8.4953    0.0000 C   0  0  0  0  0  0  0  0  0  0  0  0
   17.3047   -8.4953    0.0000 C   0  0  0  0  0  0  0  0  0  0  0  0
   21.4095   -7.0116    0.0000 C   0  0  0  0  0  0  0  0  0  0  0  0
   20.6183   -8.4459    0.0000 C   0  0  0  0  0  0  0  0  0  0  0  0
   15.5736   -7.5061    0.0000 O   0  0  0  0  0  0  0  0  0  0  0  0
   13.9415   -7.5061    0.0000 O   0  0  0  0  0  0  0  0  0  0  0  0
   16.4144   -8.9900    0.0000 C   0  0  0  0  0  0  0  0  0  0  0  0
   18.0959   -8.9900    0.0000 O   0  0  0  0  0  0  0  0  0  0  0  0
   22.2504   -7.5061    0.0000 C   0  0  0  0  0  0  0  0  0  0  0  0
   15.5736   -8.4953    0.0000 C   0  0  0  0  0  0  0  0  0  0  0  0
   23.0911   -7.0116    0.0000 C   0  0  0  0  0  0  0  0  0  0  0  0
   14.7823   -8.9900    0.0000 C   0  0  0  0  0  0  0  0  0  0  0  0
   13.9415   -8.4953    0.0000 C   0  0  0  0  0  0  0  0  0  0  0  0
   14.7823   -9.9296    0.0000 O   0  0  0  0  0  0  0  0  0  0  0  0
   14.6817   -8.0012    0.0000 H   0  0  0  0  0  0  0  0  0  0  0  0
   20.4588   -6.3315    0.0000 H   0  0  0  0  0  0  0  0  0  0  0  0
   23.9398   -7.4924    0.0000 C   0  0  0  0  0  0  0  0  0  0  0  0
   24.7806   -6.9979    0.0000 C   0  0  0  0  0  0  0  0  0  0  0  0
   23.9478   -8.4680    0.0000 C   0  0  0  0  0  0  0  0  0  0  0  0
   25.6294   -7.4788    0.0000 C   0  0  0  0  0  0  0  0  0  0  0  0
   24.7965   -8.9488    0.0000 C   0  0  0  0  0  0  0  0  0  0  0  0
   25.6373   -8.4543    0.0000 C   0  0  0  0  0  0  0  0  0  0  0  0
   23.0832   -6.0362    0.0000 O   0  0  0  0  0  0  0  0  0  0  0  0
   22.2345   -5.5553    0.0000 C   0  0  0  0  0  0  0  0  0  0  0  0
   24.8044   -9.9242    0.0000 O   0  0  0  0  0  0  0  0  0  0  0  0
  1  2  1  0     0  0
  1  3  1  0     0  0
  1  4  1  1     0  0
  1  5  1  0     0  0
  2  6  1  0     0  0
  3  7  1  0     0  0
  8  4  1  0     0  0
  5  9  1  0     0  0
  5 10  1  0     0  0
  5 11  1  0     0  0
  6 12  1  0     0  0
  6 13  1  0     0  0
  6 14  1  6     0  0
  7 15  1  0     0  0
  7 16  1  0     0  0
  8 17  1  0     0  0
 12 18  1  6     0  0
 13 19  1  0     0  0
 15 20  1  1     0  0
 16 21  1  0     0  0
 17 22  1  0     0  0
 17 23  1  6     0  0
 19 24  1  0     0  0
 19 25  2  0     0  0
 21 26  1  0     0  0
 21 27  2  0     0  0
 22 28  1  0     0  0
 29 24  1  0     0  0
 28 30  1  0     0  0
 29 31  1  0     0  0
 31 32  1  0     0  0
 31 33  1  6     0  0
  8 15  1  0     0  0
  9 12  1  0     0  0
 26 29  1  0     0  0
 29 34  1  1     0  0
  8 35  1  1     0  0
 37 36  1  0     0  0
 38 36  2  0     0  0
 39 37  2  0     0  0
 40 38  1  0     0  0
 41 39  1  0     0  0
 41 40  2  0     0  0
 30 36  1  0     0  0
 30 42  1  6     0  0
 42 43  1  0     0  0
 40 44  1  0     0  0
M  END
> <ID>
CHEBI:4344

> <NAME>
debromoaplysiatoxin

$$$$

Marvin  06090615012D          

 32 37  0  0  1  0            999 V2000
    3.3797   -3.3588    0.0000 C   0  0  2  0  0  0  0  0  0  0  0  0
    3.3679   -2.5229    0.0000 C   0  0  2  0  0  0  0  0  0  0  0  0
    3.9791   -2.8739    0.0000 C   0  0  1  0  0  0  0  0  0  0  0  0
    3.3797   -4.1949    0.0000 C   0  0  1  0  0  0  0  0  0  0  0  0
    2.6661   -2.9370    0.0000 C   0  0  2  0  0  0  0  0  0  0  0  0
    2.3546   -3.8281    0.0000 N   0  0  0  0  0  0  0  0  0  0  0  0
    4.7520   -3.0473    0.0000 C   0  0  1  0  0  0  0  0  0  0  0  0
    3.9120   -2.0891    0.0000 C   0  0  0  0  0  0  0  0  0  0  0  0
    2.6661   -4.6088    0.0000 C   0  0  2  0  0  0  0  0  0  0  0  0
    4.0068   -4.6917    0.0000 C   0  0  0  0  0  0  0  0  0  0  0  0
    1.9326   -3.3588    0.0000 C   0  0  0  0  0  0  0  0  0  0  0  0
    2.6661   -2.1049    0.0000 O   0  0  0  0  0  0  0  0  0  0  0  0
    5.1305   -3.7413    0.0000 C   0  0  1  0  0  0  0  0  0  0  0  0
    2.3189   -5.3305    0.0000 C   0  0  0  0  0  0  0  0  0  0  0  0
    1.6369   -3.4140    0.0000 C   0  0  0  0  0  0  0  0  0  0  0  0
    5.1582   -2.3731    0.0000 C   0  0  2  0  0  0  0  0  0  0  0  0
    4.6376   -1.7776    0.0000 C   0  0  1  0  0  0  0  0  0  0  0  0
    1.9326   -4.1949    0.0000 C   0  0  0  0  0  0  0  0  0  0  0  0
    2.9893   -5.3305    0.0000 C   0  0  0  0  0  0  0  0  0  0  0  0
    6.1046   -3.2879    0.0000 C   0  0  0  0  0  0  0  0  0  0  0  0
    5.8482   -4.1554    0.0000 O   0  0  0  0  0  0  0  0  0  0  0  0
    0.9113   -3.8281    0.0000 C   0  0  0  0  0  0  0  0  0  0  0  0
    6.5778   -1.6672    0.0000 O   0  0  0  0  0  0  0  0  0  0  0  0
    5.4223   -1.7776    0.0000 C   0  0  2  0  0  0  0  0  0  0  0  0
    5.9192   -1.1033    0.0000 O   0  0  0  0  0  0  0  0  0  0  0  0
    5.5959   -0.3382    0.0000 C   0  0  0  0  0  0  0  0  0  0  0  0
    4.4760   -2.3691    0.0000 H   0  0  0  0  0  0  0  0  0  0  0  0
    3.4152   -4.9006    0.0000 H   0  0  0  0  0  0  0  0  0  0  0  0
    5.5367   -3.0434    0.0000 H   0  0  0  0  0  0  0  0  0  0  0  0
    4.8151   -1.0048    0.0000 H   0  0  0  0  0  0  0  0  0  0  0  0
    4.7953   -4.4985    0.0000 C   0  0  2  0  0  0  0  0  0  0  0  0
    5.2078   -5.2130    0.0000 H   0  0  0  0  0  0  0  0  0  0  0  0
  1  2  1  6  0  0  0
  1  4  1  0  0  0  0
 31  2  1  0  0  0  0
  2  6  1  0  0  0  0
  3  7  1  0  0  0  0
  3  8  1  0  0  0  0
  4  9  1  0  0  0  0
  4 10  1  0  0  0  0
  5 11  1  0  0  0  0
  5 12  1  6  0  0  0
 31 13  1  0  0  0  0
  6 14  1  0  0  0  0
  6 15  1  0  0  0  0
  7 16  1  0  0  0  0
  8 17  1  0  0  0  0
  9 18  1  0  0  0  0
  9 19  1  1  0  0  0
 13 20  1  0  0  0  0
 13 21  1  1  0  0  0
 15 22  1  0  0  0  0
 16 23  1  6  0  0  0
 17 24  1  0  0  0  0
 24 25  1  1  0  0  0
 25 26  1  0  0  0  0
 31 10  1  0  0  0  0
  7 13  1  0  0  0  0
  9 14  1  6  0  0  0
 11 18  1  0  0  0  0
 16 17  1  0  0  0  0
 20 24  1  0  0  0  0
  3 27  1  1  0  0  0
  4 28  1  1  0  0  0
  7 29  1  1  0  0  0
 17 30  1  1  0  0  0
 31 32  1  6  0  0  0
  1  3  1  0  0  0  0
  5  1  1  0  0  0  0
M  END
> <ID>
CHEBI:6113

> <NAME>
karakoline

$$$$

Marvin  04240712302D          

 42 47  0  0  0  0            999 V2000
   -2.8438    1.1688    0.0000 C   0  0  0  0  0  0  0  0  0  0  0  0
   -3.5582    0.7563    0.0000 C   0  0  0  0  0  0  0  0  0  0  0  0
   -2.8438   -0.4813    0.0000 C   0  0  0  0  0  0  0  0  0  0  0  0
   -1.4148   -0.4813    0.0000 C   0  0  0  0  0  0  0  0  0  0  0  0
   -0.7004   -0.0688    0.0000 C   0  0  0  0  0  0  0  0  0  0  0  0
   -0.6691    2.4063    0.0000 C   0  0  0  0  0  0  0  0  0  0  0  0
   -1.3836    1.9938    0.0000 C   0  0  0  0  0  0  0  0  0  0  0  0
    0.8300    0.9138    0.0000 C   0  0  0  0  0  0  0  0  0  0  0  0
    1.3149    1.5812    0.0000 C   0  0  0  0  0  0  0  0  0  0  0  0
    0.8300    3.0737    0.0000 C   0  0  0  0  0  0  0  0  0  0  0  0
    1.4974    3.5586    0.0000 C   0  0  0  0  0  0  0  0  0  0  0  0
    0.1626    3.5586    0.0000 C   0  0  0  0  0  0  0  0  0  0  0  0
    0.8300    2.2487    0.0000 C   0  0  2  0  0  0  0  0  0  0  0  0
    1.5445    2.6612    0.0000 H   0  0  0  0  0  0  0  0  0  0  0  0
    0.0454    1.9938    0.0000 C   0  0  1  0  0  0  0  0  0  0  0  0
    0.0454    2.8188    0.0000 C   0  0  0  0  0  0  0  0  0  0  0  0
   -2.1293    0.7563    0.0000 C   0  0  1  0  0  0  0  0  0  0  0  0
   -2.1293    1.5813    0.0000 C   0  0  0  0  0  0  0  0  0  0  0  0
   -3.5582   -0.0688    0.0000 C   0  0  1  0  0  0  0  0  0  0  0  0
    0.0454    1.1688    0.0000 C   0  0  2  0  0  0  0  0  0  0  0  0
    0.0454    0.3438    0.0000 O   0  0  0  0  0  0  0  0  0  0  0  0
   -0.6691    0.7563    0.0000 C   0  0  1  0  0  0  0  0  0  0  0  0
   -0.6691    1.5813    0.0000 H   0  0  0  0  0  0  0  0  0  0  0  0
   -2.1293   -0.0688    0.0000 C   0  0  1  0  0  0  0  0  0  0  0  0
   -2.1293   -0.8938    0.0000 H   0  0  0  0  0  0  0  0  0  0  0  0
   -1.3836    1.1688    0.0000 C   0  0  2  0  0  0  0  0  0  0  0  0
   -1.3836    0.3438    0.0000 H   0  0  0  0  0  0  0  0  0  0  0  0
    1.2425    4.3432    0.0000 C   0  0  0  0  0  0  0  0  0  0  0  0
    1.8258    4.9266    0.0000 O   0  0  0  0  0  0  0  0  0  0  0  0
    0.4175    4.3432    0.0000 O   0  0  0  0  0  0  0  0  0  0  0  0
   -4.2727   -0.4813    0.0000 O   0  0  0  0  0  0  0  0  0  0  0  0
   -4.9872   -0.0688    0.0000 C   0  0  2  0  0  0  0  0  0  0  0  0
   -4.9872    0.7562    0.0000 O   0  0  0  0  0  0  0  0  0  0  0  0
   -5.7016   -0.4813    0.0000 C   0  0  1  0  0  0  0  0  0  0  0  0
   -5.7016   -1.3063    0.0000 O   0  0  0  0  0  0  0  0  0  0  0  0
   -6.4161    0.7562    0.0000 C   0  0  1  0  0  0  0  0  0  0  0  0
   -7.1306    1.1687    0.0000 O   0  0  0  0  0  0  0  0  0  0  0  0
   -5.7016    1.1687    0.0000 C   0  0  2  0  0  0  0  0  0  0  0  0
   -5.7016    1.9937    0.0000 C   0  0  0  0  0  0  0  0  0  0  0  0
   -6.4161   -0.0688    0.0000 C   0  0  1  0  0  0  0  0  0  0  0  0
   -7.1306   -0.4813    0.0000 O   0  0  0  0  0  0  0  0  0  0  0  0
   -7.1306   -1.3063    0.0000 C   0  0  0  0  0  0  0  0  0  0  0  0
  1  2  1  0  0  0  0
  1 17  1  0  0  0  0
  2 19  1  0  0  0  0
 19  3  1  0  0  0  0
  3 24  1  0  0  0  0
 26 17  1  0  0  0  0
 17 24  1  0  0  0  0
 24  4  1  0  0  0  0
  4  5  1  0  0  0  0
  5 22  1  0  0  0  0
 22 20  1  0  0  0  0
 26 22  1  0  0  0  0
  7 26  1  0  0  0  0
  6  7  1  0  0  0  0
  6 15  1  0  0  0  0
 20  8  1  0  0  0  0
 15 20  1  0  0  0  0
 13 15  1  0  0  0  0
 13  9  1  0  0  0  0
  8  9  1  0  0  0  0
 13 10  1  0  0  0  0
 10 11  2  0  0  0  0
 10 12  1  0  0  0  0
 11 28  1  0  0  0  0
 28 30  1  0  0  0  0
 30 12  1  0  0  0  0
 13 14  1  6  0  0  0
 15 16  1  1  0  0  0
 17 18  1  1  0  0  0
 19 31  1  1  0  0  0
 20 21  1  1  0  0  0
 22 23  1  1  0  0  0
 24 25  1  1  0  0  0
 26 27  1  6  0  0  0
 28 29  2  0  0  0  0
 32 31  1  1  0  0  0
 34 32  1  0  0  0  0
 32 33  1  0  0  0  0
 38 36  1  0  0  0  0
 38 33  1  0  0  0  0
 36 40  1  0  0  0  0
 40 34  1  0  0  0  0
 34 35  1  1  0  0  0
 36 37  1  1  0  0  0
 38 39  1  6  0  0  0
 40 41  1  6  0  0  0
 41 42  1  0  0  0  0
M  END
> <ID>
CHEBI:7522

> <NAME>
neriifolin

$$$$
ChEBI
  Marvin  11231212232D          

 14 14  0  0  0  0            999 V2000
    3.2668   -6.8665    0.0000 C   0  0  0  0  0  0  0  0  0  0  0  0
    2.5529   -6.4530    0.0000 C   0  0  0  0  0  0  0  0  0  0  0  0
    3.2656   -7.6916    0.0000 C   0  0  0  0  0  0  0  0  0  0  0  0
    1.8378   -6.8646    0.0000 C   0  0  0  0  0  0  0  0  0  0  0  0
    2.5506   -8.1030    0.0000 C   0  0  0  0  0  0  0  0  0  0  0  0
    1.8367   -7.6895    0.0000 C   0  0  0  0  0  0  0  0  0  0  0  0
    3.9818   -6.4550    0.0000 O   0  0  0  0  0  0  0  0  0  0  0  0
    3.9795   -8.1051    0.0000 C   0  0  0  0  0  0  0  0  0  0  0  0
    4.6945   -7.6936    0.0000 N   0  0  0  0  0  0  0  0  0  0  0  0
    3.9782   -8.9300    0.0000 O   0  0  0  0  0  0  0  0  0  0  0  0
    5.4529   -8.1321    0.0000 C   0  0  0  0  0  0  0  0  0  0  0  0
    6.1677   -7.7201    0.0000 C   0  0  0  0  0  0  0  0  0  0  0  0
    6.1682   -6.8951    0.0000 O   0  0  0  0  0  0  0  0  0  0  0  0
    6.8819   -8.1332    0.0000 O   0  0  0  0  0  0  0  0  0  0  0  0
  2  1  1  0  0  0  0
  3  1  2  0  0  0  0
  4  2  2  0  0  0  0
  5  3  1  0  0  0  0
  6  4  1  0  0  0  0
  6  5  2  0  0  0  0
  7  1  1  0  0  0  0
  8  3  1  0  0  0  0
  9  8  1  0  0  0  0
 10  8  2  0  0  0  0
 11  9  1  0  0  0  0
 13 12  2  0  0  0  0
 14 12  1  0  0  0  0
 11 12  1  0  0  0  0
M  END
> <ID>
CHEBI:9008

> <NAME>
salicyluric acid

$$$$

Ketcher 07071709472D 1   1.00000     0.00000     0

 15 15  0     1  0            999 V2000
   11.8385   -4.4933    0.0000 C   0  0  0  0  0  0  0  0  0  0  0  0
   12.1549   -5.4384    0.0000 C   0  0  0  0  0  0  0  0  0  0  0  0
   12.6504   -3.8936    0.0000 N   0  0  0  0  0  0  0  0  0  0  0  0
   10.9724   -3.9894    0.0000 C   0  0  0  0  0  0  0  0  0  0  0  0
   13.1541   -5.4342    0.0000 C   0  0  0  0  0  0  0  0  0  0  0  0
   11.5763   -6.2504    0.0000 O   0  0  0  0  0  0  0  0  0  0  0  0
   13.4623   -4.4850    0.0000 C   0  0  0  0  0  0  0  0  0  0  0  0
   10.1064   -4.4933    0.0000 C   0  0  0  0  0  0  0  0  0  0  0  0
   10.9642   -2.9901    0.0000 C   0  0  0  0  0  0  0  0  0  0  0  0
   14.3242   -3.9770    0.0000 O   0  0  0  0  0  0  0  0  0  0  0  0
    9.2405   -3.9936    0.0000 C   0  0  0  0  0  0  0  0  0  0  0  0
   10.9724   -4.9804    0.0000 H   0  0  0  0  0  0  0  0  0  0  0  0
   13.7433   -6.2414    0.0000 C   0  0  0  0  0  0  0  0  0  0  0  0
   14.7370   -6.1348    0.0000 O   0  0  0  0  0  0  0  0  0  0  0  0
   13.3389   -7.1553    0.0000 C   0  0  0  0  0  0  0  0  0  0  0  0
  1  2  1  0     0  0
  1  3  1  0     0  0
  1  4  1  0     0  0
  2  5  1  0     0  0
  2  6  2  0     0  0
  3  7  1  0     0  0
  4  8  1  0     0  0
  4  9  1  6     0  0
  7 10  2  0     0  0
  8 11  1  0     0  0
  5  7  1  0     0  0
  1 12  1  1     0  0
 14 13  2  0     0  0
 15 13  1  0     0  0
  5 13  1  0     0  0
M  END
> <ID>
CHEBI:9440

> <NAME>
tenuazonic acid

$$$$

Mrv0541 11131309552D          

 21 23  0  0  0  0            999 V2000
    0.3645    0.4718    0.0000 C   0  0  0  0  0  0  0  0  0  0  0  0
    0.3633   -0.3556    0.0000 C   0  0  0  0  0  0  0  0  0  0  0  0
    1.0782   -0.7685    0.0000 C   0  0  0  0  0  0  0  0  0  0  0  0
    1.0764    0.8845    0.0000 C   0  0  0  0  0  0  0  0  0  0  0  0
    1.7917    0.4754    0.0000 C   0  0  0  0  0  0  0  0  0  0  0  0
    1.7906   -0.3531    0.0000 C   0  0  0  0  0  0  0  0  0  0  0  0
    2.5035   -0.7660    0.0000 C   0  0  0  0  0  0  0  0  0  0  0  0
    3.2222   -0.3551    0.0000 C   0  0  2  0  0  0  0  0  0  0  0  0
    3.2234    0.4734    0.0000 C   0  0  0  0  0  0  0  0  0  0  0  0
    2.5059    0.8909    0.0000 O   0  0  0  0  0  0  0  0  0  0  0  0
    3.9353   -0.7657    0.0000 C   0  0  0  0  0  0  0  0  0  0  0  0
    3.9317   -1.5918    0.0000 C   0  0  0  0  0  0  0  0  0  0  0  0
    4.6442   -2.0063    0.0000 C   0  0  0  0  0  0  0  0  0  0  0  0
    5.3608   -1.5957    0.0000 C   0  0  0  0  0  0  0  0  0  0  0  0
    5.3604   -0.7664    0.0000 C   0  0  0  0  0  0  0  0  0  0  0  0
    4.6474   -0.3557    0.0000 C   0  0  0  0  0  0  0  0  0  0  0  0
    3.2156   -2.0016    0.0000 O   0  0  0  0  0  0  0  0  0  0  0  0
    6.0745   -2.0092    0.0000 O   0  0  0  0  0  0  0  0  0  0  0  0
    6.0733   -2.8341    0.0000 C   0  0  0  0  0  0  0  0  0  0  0  0
   -0.3501    0.8841    0.0000 O   0  0  0  0  0  0  0  0  0  0  0  0
    3.2222   -1.1801    0.0000 H   0  0  0  0  0  0  0  0  0  0  0  0
  8  9  1  0  0  0  0
  9 10  1  0  0  0  0
  5  6  1  0  0  0  0
 11 12  2  0  0  0  0
  2  3  1  0  0  0  0
 12 13  1  0  0  0  0
  3  6  2  0  0  0  0
 13 14  2  0  0  0  0
  1  2  2  0  0  0  0
 14 15  1  0  0  0  0
  5  4  2  0  0  0  0
 15 16  2  0  0  0  0
 16 11  1  0  0  0  0
  8 11  1  0  0  0  0
  4  1  1  0  0  0  0
 12 17  1  0  0  0  0
  5 10  1  0  0  0  0
 14 18  1  0  0  0  0
  6  7  1  0  0  0  0
 18 19  1  0  0  0  0
  7  8  1  0  0  0  0
  1 20  1  0  0  0  0
  8 21  1  1  0  0  0
M  END
> <ID>
CHEBI:9971

> <NAME>
(+)-vestitol

$$$$
ChEBI
  Marvin  08170909382D          

 13 13  0  0  0  0            999 V2000
   14.0775   -6.7241    0.0000 N   0  0  0  0  0  0  0  0  0  0  0  0
   14.7856   -7.1345    0.0000 C   0  0  0  0  0  0  0  0  0  0  0  0
   15.4973   -6.7241    0.0000 C   0  0  0  0  0  0  0  0  0  0  0  0
   16.2017   -7.1384    0.0000 O   0  0  0  0  0  0  0  0  0  0  0  0
   15.5162   -5.8879    0.0000 O   0  0  0  0  0  0  0  0  0  0  0  0
   13.3630   -7.1366    0.0000 C   0  0  0  0  0  0  0  0  0  0  0  0
   12.6486   -6.7241    0.0000 C   0  0  0  0  0  0  0  0  0  0  0  0
   13.3630   -7.9616    0.0000 O   0  0  0  0  0  0  0  0  0  0  0  0
   11.9341   -5.4866    0.0000 C   0  0  0  0  0  0  0  0  0  0  0  0
   11.2196   -5.8991    0.0000 C   0  0  0  0  0  0  0  0  0  0  0  0
   11.2196   -6.7241    0.0000 C   0  0  0  0  0  0  0  0  0  0  0  0
   11.9341   -7.1366    0.0000 C   0  0  0  0  0  0  0  0  0  0  0  0
   12.6486   -5.8991    0.0000 C   0  0  0  0  0  0  0  0  0  0  0  0
  1  2  1  0  0  0  0
  2  3  1  0  0  0  0
  3  4  1  0  0  0  0
  3  5  2  0  0  0  0
  1  6  1  0  0  0  0
  6  7  1  0  0  0  0
  6  8  2  0  0  0  0
 12  7  2  0  0  0  0
  7 13  1  0  0  0  0
  9 10  1  0  0  0  0
 10 11  2  0  0  0  0
 11 12  1  0  0  0  0
  9 13  2  0  0  0  0
M  END
> <ID>
CHEBI:18089

> <NAME>
N-benzoylglycine

$$$$

Marvin  03121316302D          

 37 40  0  0  1  0            999 V2000
   10.6529   -2.6101    0.0000 C   0  0  1  0  0  0  0  0  0  0  0  0
   10.6529   -3.4351    0.0000 C   0  0  2  0  0  0  0  0  0  0  0  0
   11.3541   -3.8476    0.0000 C   0  0  2  0  0  0  0  0  0  0  0  0
   12.0554   -3.4351    0.0000 C   0  0  2  0  0  0  0  0  0  0  0  0
   12.0554   -2.6101    0.0000 C   0  0  1  0  0  0  0  0  0  0  0  0
   11.3541   -2.1976    0.0000 C   0  0  0  0  0  0  0  0  0  0  0  0
   10.0341   -3.8476    0.0000 C   0  0  1  0  0  0  0  0  0  0  0  0
   10.1579   -4.4664    0.0000 N   0  0  0  0  0  0  0  0  0  0  0  0
   10.8591   -4.6314    0.0000 C   0  0  0  0  0  0  0  0  0  0  0  0
   10.8591   -5.4564    0.0000 O   0  0  0  0  0  0  0  0  0  0  0  0
   11.3541   -1.3726    0.0000 C   0  0  0  0  0  0  0  0  0  0  0  0
    9.9104   -2.1976    0.0000 C   0  0  0  0  0  0  0  0  0  0  0  0
   12.7979   -2.1976    0.0000 O   0  0  0  0  0  0  0  0  0  0  0  0
   12.0554   -5.0851    0.0000 C   0  0  0  0  0  0  0  0  0  0  0  0
   12.7979   -4.6726    0.0000 C   0  0  0  0  0  0  0  0  0  0  0  0
   12.7979   -3.8476    0.0000 C   0  0  0  0  0  0  0  0  0  0  0  0
   11.3541   -4.7551    0.0000 O   0  0  0  0  0  0  0  0  0  0  0  0
   12.0554   -5.9101    0.0000 O   0  0  0  0  0  0  0  0  0  0  0  0
   12.7979   -3.0226    0.0000 H   0  0  0  0  0  0  0  0  0  0  0  0
   13.4991   -5.0851    0.0000 C   0  0  0  0  0  0  0  0  0  0  0  0
   14.2416   -4.6726    0.0000 C   0  0  1  0  0  0  0  0  0  0  0  0
   14.2416   -3.8476    0.0000 C   0  0  0  0  0  0  0  0  0  0  0  0
   13.4991   -3.4351    0.0000 C   0  0  0  0  0  0  0  0  0  0  0  0
   14.9429   -5.0851    0.0000 C   0  0  0  0  0  0  0  0  0  0  0  0
   15.6854   -4.6726    0.0000 C   0  0  0  0  0  0  0  0  0  0  0  0
   15.6854   -3.8476    0.0000 C   0  0  0  0  0  0  0  0  0  0  0  0
   14.9429   -3.4351    0.0000 C   0  0  1  0  0  0  0  0  0  0  0  0
   14.9429   -4.2601    0.0000 O   0  0  0  0  0  0  0  0  0  0  0  0
   14.9429   -2.6101    0.0000 C   0  0  0  0  0  0  0  0  0  0  0  0
    9.9104   -3.0226    0.0000 H   0  0  0  0  0  0  0  0  0  0  0  0
    9.2916   -3.4351    0.0000 C   0  0  0  0  0  0  0  0  0  0  0  0
    8.5904   -3.8476    0.0000 C   0  0  0  0  0  0  0  0  0  0  0  0
    7.8479   -3.4351    0.0000 C   0  0  0  0  0  0  0  0  0  0  0  0
    7.1054   -3.8476    0.0000 C   0  0  0  0  0  0  0  0  0  0  0  0
    7.1054   -4.6726    0.0000 C   0  0  0  0  0  0  0  0  0  0  0  0
    7.8479   -5.0851    0.0000 C   0  0  0  0  0  0  0  0  0  0  0  0
    8.5904   -4.6726    0.0000 C   0  0  0  0  0  0  0  0  0  0  0  0
  1  2  1  0  0  0  0
  2  3  1  0  0  0  0
  3  4  1  0  0  0  0
  4  5  1  0  0  0  0
  5  6  1  0  0  0  0
  1  6  1  0  0  0  0
  2  7  1  0  0  0  0
  7  8  1  0  0  0  0
  8  9  1  0  0  0  0
  3  9  1  0  0  0  0
  9 10  2  0  0  0  0
  6 11  2  0  0  0  0
  1 12  1  6  0  0  0
  5 13  1  1  0  0  0
 14 15  1  0  0  0  0
  4 16  1  0  0  0  0
  3 17  1  1  0  0  0
 17 14  1  0  0  0  0
 14 18  2  0  0  0  0
  4 19  1  1  0  0  0
 15 20  2  0  0  0  0
 20 21  1  0  0  0  0
 22 23  1  0  0  0  0
 16 23  2  0  0  0  0
 21 24  1  0  0  0  0
 24 25  1  0  0  0  0
 25 26  1  0  0  0  0
 26 27  1  0  0  0  0
 22 27  1  0  0  0  0
 21 28  1  6  0  0  0
 27 29  1  6  0  0  0
  2 30  1  1  0  0  0
  7 31  1  1  0  0  0
 31 32  1  0  0  0  0
 32 33  2  0  0  0  0
 33 34  1  0  0  0  0
 34 35  2  0  0  0  0
 35 36  1  0  0  0  0
 36 37  2  0  0  0  0
 32 37  1  0  0  0  0
M  END
> <ID>
CHEBI:23527

> <NAME>
cytochalasin B

$$$$

Marvin  06190611002D          

 19 20  0  0  0  0            999 V2000
    1.7415   -0.2836    0.0000 C   0  0  0  0  0  0  0  0  0  0  0  0
    1.0271    0.9539    0.0000 C   0  0  0  0  0  0  0  0  0  0  0  0
   -1.8308    0.1289    0.0000 C   0  0  0  0  0  0  0  0  0  0  0  0
   -1.1164   -1.1086    0.0000 C   0  0  0  0  0  0  0  0  0  0  0  0
   -1.8308   -1.5211    0.0000 C   0  0  0  0  0  0  0  0  0  0  0  0
   -2.5453   -1.1086    0.0000 C   0  0  0  0  0  0  0  0  0  0  0  0
   -2.5453   -0.2836    0.0000 C   0  0  0  0  0  0  0  0  0  0  0  0
    2.4560    0.1289    0.0000 C   0  0  0  0  0  0  0  0  0  0  0  0
    2.4560    0.9539    0.0000 C   0  0  0  0  0  0  0  0  0  0  0  0
    1.7415    1.3664    0.0000 C   0  0  0  0  0  0  0  0  0  0  0  0
   -1.1164   -0.2836    0.0000 C   0  0  0  0  0  0  0  0  0  0  0  0
    1.0271    0.1289    0.0000 C   0  0  0  0  0  0  0  0  0  0  0  0
    3.1705   -0.2836    0.0000 O   0  0  0  0  0  0  0  0  0  0  0  0
    1.7415    2.1914    0.0000 O   0  0  0  0  0  0  0  0  0  0  0  0
   -3.2598   -1.5211    0.0000 O   0  0  0  0  0  0  0  0  0  0  0  0
   -0.4019    0.1289    0.0000 C   0  0  0  0  0  0  0  0  0  0  0  0
   -0.4019    0.9539    0.0000 H   0  0  0  0  0  0  0  0  0  0  0  0
    0.3126   -0.2836    0.0000 C   0  0  0  0  0  0  0  0  0  0  0  0
    0.3126   -1.1086    0.0000 H   0  0  0  0  0  0  0  0  0  0  0  0
 18 16  2  0  0  0  0
 18 12  1  0  0  0  0
 16 11  1  0  0  0  0
  1 12  1  0  0  0  0
 12  2  2  0  0  0  0
  8  1  2  0  0  0  0
  8  9  1  0  0  0  0
  2 10  1  0  0  0  0
 10  9  2  0  0  0  0
  4 11  2  0  0  0  0
  3 11  1  0  0  0  0
  3  7  2  0  0  0  0
  7  6  1  0  0  0  0
  6  5  2  0  0  0  0
  5  4  1  0  0  0  0
  6 15  1  0  0  0  0
  8 13  1  0  0  0  0
 10 14  1  0  0  0  0
 16 17  1  4  0  0  0
 18 19  1  4  0  0  0
M  END
> <ID>
CHEBI:27881

> <NAME>
resveratrol

$$$$

Marvin  01040715542D          

 17 18  0  0  1  0            999 V2000
   -0.2101   -0.1213    0.0000 C   0  0  2  0  0  0  0  0  0  0  0  0
   -0.2101    0.7037    0.0000 C   0  0  0  0  0  0  0  0  0  0  0  0
    0.5043   -0.5338    0.0000 C   0  0  0  0  0  0  0  0  0  0  0  0
   -0.9246   -0.5338    0.0000 C   0  0  1  0  0  0  0  0  0  0  0  0
   -0.2101   -0.9463    0.0000 C   0  0  0  0  0  0  0  0  0  0  0  0
   -0.9246    1.1162    0.0000 C   0  0  1  0  0  0  0  0  0  0  0  0
    0.5043    1.1162    0.0000 C   0  0  0  0  0  0  0  0  0  0  0  0
    1.2188   -0.1213    0.0000 C   0  0  1  0  0  0  0  0  0  0  0  0
   -1.6391   -0.1213    0.0000 C   0  0  1  0  0  0  0  0  0  0  0  0
   -0.9246   -1.3588    0.0000 C   0  0  0  0  0  0  0  0  0  0  0  0
   -1.6391    0.7037    0.0000 C   0  0  0  0  0  0  0  0  0  0  0  0
   -0.9246    1.9412    0.0000 O   0  0  0  0  0  0  0  0  0  0  0  0
    1.2188    0.7037    0.0000 C   0  0  0  0  0  0  0  0  0  0  0  0
    1.9333   -0.5338    0.0000 C   0  0  0  0  0  0  0  0  0  0  0  0
   -2.3536   -0.5338    0.0000 O   0  0  0  0  0  0  0  0  0  0  0  0
    2.6477   -0.1213    0.0000 C   0  0  0  0  0  0  0  0  0  0  0  0
    1.9333   -1.3588    0.0000 C   0  0  0  0  0  0  0  0  0  0  0  0
  1  2  1  0  0  0  0
  1  3  1  0  0  0  0
  1  4  1  0  0  0  0
  1  5  1  1  0  0  0
  2  6  1  0  0  0  0
  2  7  2  0  0  0  0
  3  8  1  0  0  0  0
  4  9  1  0  0  0  0
  4 10  1  6  0  0  0
  6 11  1  0  0  0  0
  6 12  1  1  0  0  0
  7 13  1  0  0  0  0
  8 14  1  1  0  0  0
  9 15  1  6  0  0  0
 14 16  2  0  0  0  0
 14 17  1  0  0  0  0
  8 13  1  0  0  0  0
  9 11  1  0  0  0  0
M  END
> <ID>
CHEBI:28283

> <NAME>
capsidiol

$$$$

Marvin  02120600062D          

 28 33  0  0  1  0            999 V2000
    0.9340   -0.3669    0.0000 C   0  0  0  0  0  0  0  0  0  0  0  0
    0.9340   -1.1919    0.0000 C   0  0  0  0  0  0  0  0  0  0  0  0
    0.2195    0.0456    0.0000 C   0  0  0  0  0  0  0  0  0  0  0  0
    0.2195   -1.6044    0.0000 C   0  0  0  0  0  0  0  0  0  0  0  0
   -0.4950   -0.3669    0.0000 C   0  0  0  0  0  0  0  0  0  0  0  0
   -0.4950   -1.1919    0.0000 C   0  0  0  0  0  0  0  0  0  0  0  0
    1.6485    0.8706    0.0000 C   0  0  0  0  0  0  0  0  0  0  0  0
    1.6485    0.0456    0.0000 C   0  0  0  0  0  0  0  0  0  0  0  0
    0.9340    1.2831    0.0000 C   0  0  0  0  0  0  0  0  0  0  0  0
    0.2195    0.8706    0.0000 O   0  0  0  0  0  0  0  0  0  0  0  0
    2.4331    1.1255    0.0000 C   0  0  0  0  0  0  0  0  0  0  0  0
    2.9180    0.4581    0.0000 C   0  0  0  0  0  0  0  0  0  0  0  0
    2.4331   -0.2093    0.0000 C   0  0  0  0  0  0  0  0  0  0  0  0
   -1.2796   -0.1120    0.0000 C   0  0  1  0  0  0  0  0  0  0  0  0
   -1.7645   -0.7794    0.0000 C   0  0  1  0  0  0  0  0  0  0  0  0
   -1.2796   -1.4468    0.0000 O   0  0  0  0  0  0  0  0  0  0  0  0
   -1.7645    0.5555    0.0000 C   0  0  2  0  0  0  0  0  0  0  0  0
   -2.5491    0.3005    0.0000 C   0  0  2  0  0  0  0  0  0  0  0  0
   -2.5491   -0.5245    0.0000 O   0  0  0  0  0  0  0  0  0  0  0  0
    0.9340    2.1081    0.0000 O   0  0  0  0  0  0  0  0  0  0  0  0
    2.6880    1.9102    0.0000 O   0  0  0  0  0  0  0  0  0  0  0  0
    1.6485   -1.6044    0.0000 O   0  0  0  0  0  0  0  0  0  0  0  0
    2.3629   -1.1919    0.0000 C   0  0  0  0  0  0  0  0  0  0  0  0
   -0.7947    0.5555    0.0000 H   0  0  0  0  0  0  0  0  0  0  0  0
   -2.2494   -1.4468    0.0000 H   0  0  0  0  0  0  0  0  0  0  0  0
   -2.3776    1.1075    0.0000 O   0  0  0  0  0  0  0  0  0  0  0  0
   -0.9904    0.8406    0.0000 H   0  0  0  0  0  0  0  0  0  0  0  0
   -3.3430    0.0762    0.0000 H   0  0  0  0  0  0  0  0  0  0  0  0
  2  1  2  0  0  0  0
  3  1  1  0  0  0  0
  4  2  1  0  0  0  0
  5  3  2  0  0  0  0
  6  4  2  0  0  0  0
  6  5  1  0  0  0  0
  9  7  1  0  0  0  0
  1  8  1  0  0  0  0
 10  9  1  0  0  0  0
  3 10  1  0  0  0  0
 11  7  1  0  0  0  0
  8  7  2  0  0  0  0
 12 11  1  0  0  0  0
 13  8  1  0  0  0  0
 13 12  1  0  0  0  0
 14  5  1  0  0  0  0
 16  6  1  0  0  0  0
 15 16  1  0  0  0  0
 14 17  1  0  0  0  0
 14 15  1  0  0  0  0
 17 18  1  0  0  0  0
 15 19  1  0  0  0  0
 18 19  1  0  0  0  0
 20  9  2  0  0  0  0
 21 11  2  0  0  0  0
 22  2  1  0  0  0  0
 23 22  1  0  0  0  0
 14 24  1  6  0  0  0
 15 25  1  6  0  0  0
 17 26  1  0  0  0  0
 18 26  1  0  0  0  0
 17 27  1  1  0  0  0
 18 28  1  1  0  0  0
M  END
> <ID>
CHEBI:30725

> <NAME>
aflatoxin B1 exo-8,9-epoxide

$$$$

Marvin  06190611212D          

 17 18  0  0  0  0            999 V2000
    0.2942   -0.1699    0.0000 C   0  0  0  0  0  0  0  0  0  0  0  0
    1.0087   -1.4074    0.0000 C   0  0  0  0  0  0  0  0  0  0  0  0
   -1.8492    0.2426    0.0000 C   0  0  0  0  0  0  0  0  0  0  0  0
   -0.4203    0.2426    0.0000 C   0  0  0  0  0  0  0  0  0  0  0  0
   -0.4203    1.0676    0.0000 C   0  0  0  0  0  0  0  0  0  0  0  0
   -1.1347    1.4801    0.0000 C   0  0  0  0  0  0  0  0  0  0  0  0
   -1.8492    1.0676    0.0000 C   0  0  0  0  0  0  0  0  0  0  0  0
    1.0087    0.2426    0.0000 C   0  0  0  0  0  0  0  0  0  0  0  0
    1.7231   -0.1699    0.0000 C   0  0  0  0  0  0  0  0  0  0  0  0
    1.7231   -0.9949    0.0000 C   0  0  0  0  0  0  0  0  0  0  0  0
   -1.1347   -0.1699    0.0000 C   0  0  0  0  0  0  0  0  0  0  0  0
    0.2942   -0.9949    0.0000 C   0  0  0  0  0  0  0  0  0  0  0  0
    1.0087    1.0676    0.0000 O   0  0  0  0  0  0  0  0  0  0  0  0
    2.4376   -1.4074    0.0000 O   0  0  0  0  0  0  0  0  0  0  0  0
   -1.1347    2.3051    0.0000 O   0  0  0  0  0  0  0  0  0  0  0  0
   -0.4203   -1.4074    0.0000 C   0  0  0  0  0  0  0  0  0  0  0  0
   -1.1347   -0.9949    0.0000 C   0  0  0  0  0  0  0  0  0  0  0  0
 16 17  2  0  0  0  0
 16 12  1  0  0  0  0
 17 11  1  0  0  0  0
  1 12  2  0  0  0  0
 12  2  1  0  0  0  0
  8  1  1  0  0  0  0
  8  9  2  0  0  0  0
  2 10  2  0  0  0  0
 10  9  1  0  0  0  0
  4 11  2  0  0  0  0
  3 11  1  0  0  0  0
  3  7  2  0  0  0  0
  7  6  1  0  0  0  0
  6  5  2  0  0  0  0
  5  4  1  0  0  0  0
  6 15  1  0  0  0  0
  8 13  1  0  0  0  0
 10 14  1  0  0  0  0
M  END
> <ID>
CHEBI:36002

> <NAME>
cis-resveratrol

$$$$

Marvin  12110611422D          

 69 73  0  0  0  0            999 V2000
  -10.4522   -1.9249    0.0000 C   0  0  0  0  0  0  0  0  0  0  0  0
  -10.4522   -0.5900    0.0000 C   0  0  0  0  0  0  0  0  0  0  0  0
  -10.9371   -1.2574    0.0000 C   0  0  1  0  0  0  0  0  0  0  0  0
  -11.7621   -1.2574    0.0000 O   0  0  0  0  0  0  0  0  0  0  0  0
   -9.6675   -1.6699    0.0000 N   0  0  0  0  0  0  0  0  0  0  0  0
   -8.9531    0.3925    0.0000 N   0  0  0  0  0  0  0  0  0  0  0  0
   -9.6675   -0.8450    0.0000 C   0  0  2  0  0  0  0  0  0  0  0  0
   -9.6675   -0.0200    0.0000 H   0  0  0  0  0  0  0  0  0  0  0  0
   -8.9531   -0.4325    0.0000 C   0  0  0  0  0  0  0  0  0  0  0  0
   -8.3097   -0.8450    0.0000 O   0  0  0  0  0  0  0  0  0  0  0  0
   -8.0677    2.1029    0.0000 C   0  0  2  0  0  0  0  0  0  0  0  0
   -8.4802    2.8173    0.0000 O   0  0  0  0  0  0  0  0  0  0  0  0
   -8.6511    1.5195    0.0000 C   0  0  2  0  0  0  0  0  0  0  0  0
   -9.4761    1.5195    0.0000 C   0  0  0  0  0  0  0  0  0  0  0  0
   -8.2386    0.8050    0.0000 C   0  0  1  0  0  0  0  0  0  0  0  0
   -7.8261    1.5195    0.0000 H   0  0  0  0  0  0  0  0  0  0  0  0
   -7.2427    2.1029    0.0000 C   0  0  0  0  0  0  0  0  0  0  0  0
   -6.6594    2.6862    0.0000 O   0  0  0  0  0  0  0  0  0  0  0  0
   -7.5241   -0.4325    0.0000 O   0  0  0  0  0  0  0  0  0  0  0  0
   -7.5241    0.3925    0.0000 C   0  0  0  0  0  0  0  0  0  0  0  0
   -6.8097    0.8050    0.0000 N   0  0  0  0  0  0  0  0  0  0  0  0
   -5.3807    1.6300    0.0000 O   0  0  0  0  0  0  0  0  0  0  0  0
   -5.3807    0.8050    0.0000 C   0  0  0  0  0  0  0  0  0  0  0  0
   -4.6662    0.3925    0.0000 N   0  0  0  0  0  0  0  0  0  0  0  0
   -4.6662   -0.4325    0.0000 C   0  0  0  0  0  0  0  0  0  0  0  0
   -3.2373   -0.4325    0.0000 O   0  0  0  0  0  0  0  0  0  0  0  0
   -3.9518   -0.8450    0.0000 C   0  0  0  0  0  0  0  0  0  0  0  0
   -3.9518   -1.6700    0.0000 N   0  0  0  0  0  0  0  0  0  0  0  0
   -2.5228   -0.8450    0.0000 C   0  0  0  0  0  0  0  0  0  0  0  0
   -2.5228   -1.6700    0.0000 C   0  0  1  0  0  0  0  0  0  0  0  0
   -1.8084   -2.0825    0.0000 C   0  0  0  0  0  0  0  0  0  0  0  0
   -1.0939   -1.6700    0.0000 C   0  0  0  0  0  0  0  0  0  0  0  0
   -3.2373   -2.0825    0.0000 C   0  0  1  0  0  0  0  0  0  0  0  0
   -2.4404   -2.2960    0.0000 H   0  0  0  0  0  0  0  0  0  0  0  0
   -2.5228   -3.3200    0.0000 O   0  0  0  0  0  0  0  0  0  0  0  0
   -3.2373   -2.9075    0.0000 C   0  0  0  0  0  0  0  0  0  0  0  0
   -3.9518   -3.3200    0.0000 N   0  0  0  0  0  0  0  0  0  0  0  0
   -4.6662   -2.9075    0.0000 C   0  0  0  0  0  0  0  0  0  0  0  0
   -5.3807   -4.1450    0.0000 O   0  0  0  0  0  0  0  0  0  0  0  0
   -5.3807   -3.3200    0.0000 C   0  0  0  0  0  0  0  0  0  0  0  0
   -8.4044   -1.8594    0.0000 O   0  0  0  0  0  0  0  0  0  0  0  0
   -8.9531   -2.0824    0.0000 C   0  0  0  0  0  0  0  0  0  0  0  0
   -9.6675   -3.3199    0.0000 C   0  0  0  0  0  0  0  0  0  0  0  0
   -8.9531   -4.5574    0.0000 O   0  0  0  0  0  0  0  0  0  0  0  0
   -9.6675   -4.1449    0.0000 C   0  0  0  0  0  0  0  0  0  0  0  0
  -10.3820   -4.5574    0.0000 N   0  0  0  0  0  0  0  0  0  0  0  0
   -8.9531   -2.9074    0.0000 C   0  0  2  0  0  0  0  0  0  0  0  0
   -5.4708   -0.9275    0.0000 C   0  0  0  0  0  0  0  0  0  0  0  0
   -5.4471   -2.1986    0.0000 C   0  0  0  0  0  0  0  0  0  0  0  0
   -4.9221   -1.2216    0.0000 C   0  0  0  0  0  0  0  0  0  0  0  0
   -6.0432   -1.9045    0.0000 C   0  0  0  0  0  0  0  0  0  0  0  0
   -6.0432   -1.1979    0.0000 C   0  0  0  0  0  0  0  0  0  0  0  0
   -6.5910   -0.9904    0.0000 C   0  0  0  0  0  0  0  0  0  0  0  0
   -6.5436   -2.0648    0.0000 N   0  0  0  0  0  0  0  0  0  0  0  0
   -7.0285   -1.5394    0.0000 C   0  0  0  0  0  0  0  0  0  0  0  0
   -8.4846   -1.3259    0.0000 O   0  0  0  0  0  0  0  0  0  0  0  0
   -7.6877   -1.5394    0.0000 S   0  0  0  0  0  0  0  0  0  0  0  0
   -7.6877   -2.3644    0.0000 C   0  0  0  0  0  0  0  0  0  0  0  0
   -6.0952   -2.9075    0.0000 N   0  0  0  0  0  0  0  0  0  0  0  0
   -8.2386   -3.3199    0.0000 N   0  0  0  0  0  0  0  0  0  0  0  0
   -7.4136   -3.3199    0.0000 C   0  0  0  0  0  0  0  0  0  0  0  0
   -7.2379   -4.0817    0.0000 O   0  0  0  0  0  0  0  0  0  0  0  0
   -6.9202   -2.9075    0.0000 C   0  0  2  0  0  0  0  0  0  0  0  0
   -6.7067   -3.7043    0.0000 H   0  0  0  0  0  0  0  0  0  0  0  0
   -6.6261   -0.2982    0.0000 C   0  0  0  0  0  0  0  0  0  0  0  0
   -6.0952    0.3925    0.0000 C   0  0  2  0  0  0  0  0  0  0  0  0
   -6.0952    1.2175    0.0000 H   0  0  0  0  0  0  0  0  0  0  0  0
   -4.9221   -1.8809    0.0000 C   0  0  0  0  0  0  0  0  0  0  0  0
   -4.2076   -2.2934    0.0000 O   0  0  0  0  0  0  0  0  0  0  0  0
  1  5  1  0  0  0  0
  1  3  1  0  0  0  0
  5  7  1  0  0  0  0
  7  2  1  0  0  0  0
  2  3  1  0  0  0  0
  3  4  1  6  0  0  0
  7  9  1  0  0  0  0
  5 42  1  0  0  0  0
  9  6  1  0  0  0  0
  6 15  1  0  0  0  0
  7  8  1  6  0  0  0
  9 10  2  0  0  0  0
 15 20  1  0  0  0  0
 15 13  1  0  0  0  0
 13 11  1  0  0  0  0
 11 17  1  0  0  0  0
 11 12  1  1  0  0  0
 13 14  1  1  0  0  0
 15 16  1  6  0  0  0
 17 18  1  0  0  0  0
 20 19  2  0  0  0  0
 20 21  1  0  0  0  0
 21 66  1  0  0  0  0
 66 23  1  0  0  0  0
 23 22  2  0  0  0  0
 23 24  1  0  0  0  0
 24 25  1  0  0  0  0
 25 27  1  0  0  0  0
 27 26  2  0  0  0  0
 27 28  1  0  0  0  0
 28 33  1  0  0  0  0
 33 36  1  0  0  0  0
 33 30  1  0  0  0  0
 30 29  1  1  0  0  0
 30 31  1  0  0  0  0
 31 32  1  0  0  0  0
 33 34  1  6  0  0  0
 36 35  2  0  0  0  0
 36 37  1  0  0  0  0
 37 38  1  0  0  0  0
 38 40  1  0  0  0  0
 40 39  2  0  0  0  0
 40 59  1  0  0  0  0
 42 41  2  0  0  0  0
 42 47  1  0  0  0  0
 47 43  1  1  0  0  0
 43 45  1  0  0  0  0
 45 44  2  0  0  0  0
 45 46  1  0  0  0  0
 47 60  1  0  0  0  0
 48 52  1  0  0  0  0
 48 50  2  0  0  0  0
 51 49  1  0  0  0  0
 49 68  2  0  0  0  0
 68 50  1  0  0  0  0
 54 51  1  0  0  0  0
 52 51  2  0  0  0  0
 52 53  1  0  0  0  0
 54 55  1  0  0  0  0
 53 55  2  0  0  0  0
 55 57  1  0  0  0  0
 57 56  2  0  0  0  0
 57 58  1  1  0  0  0
 59 63  1  0  0  0  0
 63 58  1  0  0  0  0
 60 61  1  0  0  0  0
 63 61  1  0  0  0  0
 61 62  2  0  0  0  0
 63 64  1  1  0  0  0
 66 65  1  0  0  0  0
 53 65  1  0  0  0  0
 66 67  1  1  0  0  0
 68 69  1  0  0  0  0
M  END
> <ID>
CHEBI:37415

> <NAME>
alpha-amanitin

$$$$

Marvin  05030717382D          

 25 27  0  0  0  0            999 V2000
   -2.0270   -0.8188    0.0000 C   0  0  0  0  0  0  0  0  0  0  0  0
   -1.3125   -1.2313    0.0000 C   0  0  0  0  0  0  0  0  0  0  0  0
    0.1164    0.4188    0.0000 C   0  0  0  0  0  0  0  0  0  0  0  0
    0.1164   -1.2313    0.0000 C   0  0  0  0  0  0  0  0  0  0  0  0
    0.8309   -0.8188    0.0000 C   0  0  0  0  0  0  0  0  0  0  0  0
    0.8309    0.0063    0.0000 C   0  0  0  0  0  0  0  0  0  0  0  0
   -0.5980    0.0063    0.0000 C   0  0  2  0  0  0  0  0  0  0  0  0
   -0.5980    0.8313    0.0000 H   0  0  0  0  0  0  0  0  0  0  0  0
   -0.5980   -0.8188    0.0000 C   0  0  1  0  0  0  0  0  0  0  0  0
   -0.5980   -1.6438    0.0000 H   0  0  0  0  0  0  0  0  0  0  0  0
   -1.3125    0.4188    0.0000 C   0  0  2  0  0  0  0  0  0  0  0  0
   -1.3125    1.2438    0.0000 C   0  0  0  0  0  0  0  0  0  0  0  0
   -0.5980    1.6563    0.0000 C   0  0  0  0  0  0  0  0  0  0  0  0
   -2.0270    1.6563    0.0000 O   0  0  0  0  0  0  0  0  0  0  0  0
   -2.0270    2.4813    0.0000 C   0  0  0  0  0  0  0  0  0  0  0  0
   -2.7414    2.8938    0.0000 O   0  0  0  0  0  0  0  0  0  0  0  0
   -0.5980    2.4813    0.0000 C   0  0  0  0  0  0  0  0  0  0  0  0
   -2.0270    0.0063    0.0000 C   0  0  1  0  0  0  0  0  0  0  0  0
   -2.7414    0.4188    0.0000 C   0  0  0  0  0  0  0  0  0  0  0  0
   -1.3125    2.8938    0.0000 C   0  0  0  0  0  0  0  0  0  0  0  0
   -0.5980    4.1313    0.0000 O   0  0  0  0  0  0  0  0  0  0  0  0
   -1.3125    3.7188    0.0000 C   0  0  0  0  0  0  0  0  0  0  0  0
   -2.0270    4.1313    0.0000 H   0  0  0  0  0  0  0  0  0  0  0  0
    0.1164    2.8938    0.0000 O   0  0  0  0  0  0  0  0  0  0  0  0
    0.8309    2.4813    0.0000 C   0  0  0  0  0  0  0  0  0  0  0  0
 11 18  1  0  0  0  0
 11  7  1  0  0  0  0
 18  1  1  0  0  0  0
  1  2  2  0  0  0  0
  2  9  1  0  0  0  0
  3  7  1  0  0  0  0
  7  9  1  0  0  0  0
  9  4  1  0  0  0  0
  3  6  1  0  0  0  0
  4  5  1  0  0  0  0
  5  6  1  0  0  0  0
  7  8  1  1  0  0  0
  9 10  1  1  0  0  0
 11 12  1  1  0  0  0
 14 12  1  0  0  0  0
 12 13  2  0  0  0  0
 20 15  1  0  0  0  0
 20 17  2  0  0  0  0
 15 14  1  0  0  0  0
 13 17  1  0  0  0  0
 15 16  2  0  0  0  0
 17 24  1  0  0  0  0
 18 19  1  6  0  0  0
 20 22  1  0  0  0  0
 22 21  2  0  0  0  0
 22 23  1  0  0  0  0
 24 25  1  0  0  0  0
M  END
> <ID>
CHEBI:38229

> <NAME>
solanapyrone A

$$$$

Ketcher 08272011022D 1   1.00000     0.00000     0

 24 26  0     1  0            999 V2000
   11.8171   -7.1341    0.0000 N   0  0  0  0  0  0  0  0  0  0  0  0
   12.0504   -6.1618    0.0000 C   0  0  0  0  0  0  0  0  0  0  0  0
   10.9114   -7.5579    0.0000 C   0  0  0  0  0  0  0  0  0  0  0  0
   12.6697   -7.6566    0.0000 C   0  0  0  0  0  0  0  0  0  0  0  0
   13.0474   -6.0832    0.0000 C   0  0  0  0  0  0  0  0  0  0  0  0
   11.4357   -5.3729    0.0000 C   0  0  0  0  0  0  0  0  0  0  0  0
   10.0153   -7.1140    0.0000 C   0  0  0  0  0  0  0  0  0  0  0  0
   10.9002   -8.5578    0.0000 O   0  0  0  0  0  0  0  0  0  0  0  0
   13.4300   -7.0071    0.0000 C   0  0  0  0  0  0  0  0  0  0  0  0
   10.4359   -5.3618    0.0000 N   0  0  0  0  0  0  0  0  0  0  0  0
   11.8796   -4.4769    0.0000 O   0  0  0  0  0  0  0  0  0  0  0  0
    9.8036   -6.1366    0.0000 C   0  0  0  0  0  0  0  0  0  0  0  0
    9.2747   -7.7859    0.0000 C   0  0  0  0  0  0  0  0  0  0  0  0
   14.4024   -7.2406    0.0000 C   0  0  0  0  0  0  0  0  0  0  0  0
    8.8514   -5.8312    0.0000 C   0  0  0  0  0  0  0  0  0  0  0  0
    8.3224   -7.4804    0.0000 C   0  0  0  0  0  0  0  0  0  0  0  0
   15.0908   -6.5151    0.0000 C   0  0  0  0  0  0  0  0  0  0  0  0
    8.1108   -6.5031    0.0000 C   0  0  0  0  0  0  0  0  0  0  0  0
    8.6397   -4.8539    0.0000 O   0  0  0  0  0  0  0  0  0  0  0  0
   16.0632   -6.7485    0.0000 C   0  0  0  0  0  0  0  0  0  0  0  0
    7.1585   -6.1978    0.0000 C   0  0  0  0  0  0  0  0  0  0  0  0
   16.3473   -7.7073    0.0000 O   0  0  0  0  0  0  0  0  0  0  0  0
   16.7515   -6.0231    0.0000 N   0  0  0  0  0  0  0  0  0  0  0  0
   12.5504   -5.2957    0.0000 H   0  0  0  0  0  0  0  0  0  0  0  0
  1  2  1  0     0  0
  1  3  1  0     0  0
  1  4  1  0     0  0
  2  5  1  0     0  0
  2  6  1  0     0  0
  3  7  1  0     0  0
  3  8  2  0     0  0
  4  9  2  0     0  0
  6 10  1  0     0  0
  6 11  1  6     0  0
  7 12  2  0     0  0
  7 13  1  0     0  0
  9 14  1  0     0  0
 12 15  1  0     0  0
 13 16  2  0     0  0
 14 17  2  0     0  0
 15 18  2  0     0  0
 15 19  1  0     0  0
 17 20  1  0     0  0
 18 21  1  0     0  0
 20 22  2  0     0  0
 20 23  1  0     0  0
  5  9  1  0     0  0
 10 12  1  0     0  0
 16 18  1  0     0  0
  2 24  1  1     0  0
M  END
> <ID>
CHEBI:40699

> <NAME>
anthramycin

$$$$

Marvin  09271017062D          

 12 12  0  0  1  0            999 V2000
    9.9212   -3.7162    0.0000 C   0  0  0  0  0  0  0  0  0  0  0  0
    9.9212   -4.5412    0.0000 C   0  0  1  0  0  0  0  0  0  0  0  0
    9.2068   -3.3037    0.0000 O   0  0  0  0  0  0  0  0  0  0  0  0
    9.2068   -4.9537    0.0000 C   0  0  2  0  0  0  0  0  0  0  0  0
    8.4924   -3.7162    0.0000 C   0  0  1  0  0  0  0  0  0  0  0  0
    8.4924   -4.5412    0.0000 C   0  0  2  0  0  0  0  0  0  0  0  0
   10.6357   -3.3037    0.0000 O   0  0  0  0  0  0  0  0  0  0  0  0
   10.6357   -4.9537    0.0000 N   0  0  0  0  0  0  0  0  0  0  0  0
    9.2068   -5.7786    0.0000 O   0  0  0  0  0  0  0  0  0  0  0  0
    7.7778   -4.9537    0.0000 O   0  0  0  0  0  0  0  0  0  0  0  0
    7.7778   -3.3037    0.0000 C   0  0  0  0  0  0  0  0  0  0  0  0
    7.0634   -3.7162    0.0000 O   0  0  0  0  0  0  0  0  0  0  0  0
  1  2  1  0  0  0  0
  1  3  1  0  0  0  0
  2  4  1  0  0  0  0
  3  5  1  0  0  0  0
  4  6  1  0  0  0  0
  5  6  1  0  0  0  0
  1  7  1  0  0  0  0
  2  8  1  6  0  0  0
  4  9  1  1  0  0  0
  6 10  1  1  0  0  0
  5 11  1  1  0  0  0
 12 11  1  0  0  0  0
M  END
> <ID>
CHEBI:60312

> <NAME>
2-amino-2-deoxy-D-galactopyranose

$$$$

Ketcher 11181915412D 1   1.00000     0.00000     0

 44 47  0     1  0            999 V2000
    3.7206  -27.9531    0.0000 C   0  0  0  0  0  0  0  0  0  0  0  0
    2.8466  -28.4416    0.0000 C   0  0  0  0  0  0  0  0  0  0  0  0
    2.8466  -29.4472    0.0000 C   0  0  0  0  0  0  0  0  0  0  0  0
    3.7206  -29.9453    0.0000 C   0  0  0  0  0  0  0  0  0  0  0  0
    4.5758  -29.4472    0.0000 C   0  0  0  0  0  0  0  0  0  0  0  0
    5.4308  -29.9453    0.0000 C   0  0  0  0  0  0  0  0  0  0  0  0
    6.3141  -29.4472    0.0000 C   0  0  0  0  0  0  0  0  0  0  0  0
    6.3141  -28.4416    0.0000 C   0  0  0  0  0  0  0  0  0  0  0  0
    5.4308  -27.9531    0.0000 C   0  0  0  0  0  0  0  0  0  0  0  0
    4.5758  -28.4416    0.0000 C   0  0  0  0  0  0  0  0  0  0  0  0
    5.4308  -26.9758    0.0000 C   0  0  0  0  0  0  0  0  0  0  0  0
    6.3141  -26.4684    0.0000 C   0  0  0  0  0  0  0  0  0  0  0  0
    7.1599  -26.9758    0.0000 C   0  0  0  0  0  0  0  0  0  0  0  0
    7.1599  -27.9531    0.0000 C   0  0  0  0  0  0  0  0  0  0  0  0
    8.1089  -28.2631    0.0000 C   0  0  0  0  0  0  0  0  0  0  0  0
    8.6822  -27.4738    0.0000 C   0  0  0  0  0  0  0  0  0  0  0  0
    8.1089  -26.6751    0.0000 C   0  0  0  0  0  0  0  0  0  0  0  0
    7.1599  -25.9516    0.0000 H   0  0  0  0  0  0  0  0  0  0  0  0
    4.5750  -27.4550    0.0000 C   0  0  0  0  0  0  0  0  0  0  0  0
    8.1089  -25.6418    0.0000 C   0  0  0  0  0  0  0  0  0  0  0  0
    7.1610  -25.0793    0.0000 C   0  0  0  0  0  0  0  0  0  0  0  0
    7.1692  -28.9586    0.0000 C   0  0  0  0  0  0  0  0  0  0  0  0
    6.3234  -27.4425    0.0000 C   0  0  0  0  0  0  0  0  0  0  0  0
    5.4308  -28.9586    0.0000 H   0  0  0  0  0  0  0  0  0  0  0  0
    1.9827  -29.9492    0.0000 O   0  0  0  0  0  0  0  0  0  0  0  0
    4.5934  -30.4208    0.0000 H   0  0  0  0  0  0  0  0  0  0  0  0
    6.2898  -25.5683    0.0000 C   0  0  0  0  0  0  0  0  0  0  0  0
    5.4305  -25.0583    0.0000 C   0  0  0  0  0  0  0  0  0  0  0  0
    4.5593  -25.5475    0.0000 C   0  0  0  0  0  0  0  0  0  0  0  0
    3.7001  -25.0375    0.0000 C   0  0  0  0  0  0  0  0  0  0  0  0
    4.5472  -26.5467    0.0000 C   0  0  0  0  0  0  0  0  0  0  0  0
    3.7252  -30.9445    0.0000 C   0  0  0  0  0  0  0  0  0  0  0  0
    5.4237  -30.9445    0.0000 O   0  0  0  0  0  0  0  0  0  0  0  0
    6.2856  -31.4502    0.0000 C   0  0  0  0  0  0  0  0  0  0  0  0
    7.1544  -30.9566    0.0000 O   0  0  0  0  0  0  0  0  0  0  0  0
    6.2785  -32.4493    0.0000 C   0  0  0  0  0  0  0  0  0  0  0  0
    7.1770  -29.9511    0.0000 O   0  0  0  0  0  0  0  0  0  0  0  0
    9.6812  -27.4766    0.0000 O   0  0  0  0  0  0  0  0  0  0  0  0
   10.1784  -28.3434    0.0000 C   0  0  0  0  0  0  0  0  0  0  0  0
   11.1777  -28.3464    0.0000 O   0  0  0  0  0  0  0  0  0  0  0  0
    9.6764  -29.2075    0.0000 C   0  0  0  0  0  0  0  0  0  0  0  0
    8.9921  -25.1741    0.0000 C   0  0  0  0  0  0  0  0  0  0  0  0
    9.0288  -24.1755    0.0000 O   0  0  0  0  0  0  0  0  0  0  0  0
    9.8384  -25.7052    0.0000 O   0  0  0  0  0  0  0  0  0  0  0  0
 14 13  1  0     0  0
 17 13  1  0     0  0
 12 13  1  0     0  0
 13 18  1  6     0  0
  8 14  1  0     0  0
 15 14  1  0     0  0
 14 22  1  1     0  0
 11  9  1  0     0  0
 10  9  1  0     0  0
  8  9  1  0     0  0
  9 24  1  1     0  0
  7  8  1  0     0  0
  8 23  1  6     0  0
  5 10  1  0     0  0
 10 19  1  1     0  0
  1 10  1  0     0  0
 16 17  1  0     0  0
 20 17  2  0     0  0
 11 12  1  0     0  0
 16 15  1  0     0  0
  6  7  1  0     0  0
  4  5  1  0     0  0
  6  5  1  0     0  0
 20 21  1  0     0  0
  2  1  2  0     0  0
  3  4  1  0     0  0
  3  2  1  0     0  0
  3 25  2  0     0  0
  5 26  1  6     0  0
 21 27  1  0     0  0
 27 28  1  0     0  0
 28 29  2  0     0  0
 29 30  1  0     0  0
 29 31  1  0     0  0
  4 32  1  6     0  0
  6 33  1  1     0  0
 35 34  2  0     0  0
 36 34  1  0     0  0
 33 34  1  0     0  0
  7 37  2  0     0  0
 16 38  1  1     0  0
 40 39  2  0     0  0
 41 39  1  0     0  0
 38 39  1  0     0  0
 43 42  2  0     0  0
 44 42  1  0     0  0
 20 42  1  0     0  0
M  END
> <ID>
CHEBI:62460

> <NAME>
helvolic acid

$$$$

  Ketcher 04041717022D 1   1.00000     0.00000     0

  0  0  0     0  0            999 V2000
M  END> <ID>
CHEBI:64648

> <NAME>
enniatin

$$$$

Marvin  05231215372D          

 45 45  0  0  1  0            999 V2000
   25.2040   -6.2414    0.0000 O   0  0  0  0  0  0  0  0  0  0  0  0
   24.0521   -5.5764    0.0000 C   0  0  0  0  0  0  0  0  0  0  0  0
   22.9003   -6.2414    0.0000 C   0  0  0  0  0  0  0  0  0  0  0  0
   22.9003   -7.5714    0.0000 N   0  0  0  0  0  0  0  0  0  0  0  0
   27.5077   -6.2414    0.0000 C   0  0  0  0  0  0  0  0  0  0  0  0
   27.5077   -7.5714    0.0000 N   0  0  0  0  0  0  0  0  0  0  0  0
   26.3558   -5.5764    0.0000 C   0  0  0  0  0  0  0  0  0  0  0  0
   28.6596   -8.2364    0.0000 C   0  0  0  0  0  0  0  0  0  0  0  0
   28.6596   -9.5664    0.0000 C   0  0  0  0  0  0  0  0  0  0  0  0
   27.5077  -10.2314    0.0000 O   0  0  0  0  0  0  0  0  0  0  0  0
   21.7490   -8.2368    0.0000 C   0  0  0  0  0  0  0  0  0  0  0  0
   22.9008  -10.2311    0.0000 O   0  0  0  0  0  0  0  0  0  0  0  0
   21.7491   -9.5664    0.0000 C   0  0  0  0  0  0  0  0  0  0  0  0
   25.2038  -11.5610    0.0000 N   0  0  0  0  0  0  0  0  0  0  0  0
   24.0520  -12.2257    0.0000 C   0  0  0  0  0  0  0  0  0  0  0  0
   22.9004  -11.5607    0.0000 C   0  0  0  0  0  0  0  0  0  0  0  0
   27.5076  -11.5613    0.0000 C   0  0  0  0  0  0  0  0  0  0  0  0
   26.3558  -12.2262    0.0000 C   0  0  0  0  0  0  0  0  0  0  0  0
   24.0521   -4.2464    0.0000 O   0  0  0  0  0  0  0  0  0  0  0  0
   26.3558   -4.2464    0.0000 C   0  0  0  0  0  0  0  0  0  0  0  0
   27.5076   -3.5814    0.0000 C   0  0  0  0  0  0  0  0  0  0  0  0
   25.2039   -3.5814    0.0000 C   0  0  0  0  0  0  0  0  0  0  0  0
   28.6595   -5.5764    0.0000 O   0  0  0  0  0  0  0  0  0  0  0  0
   29.8114   -7.5714    0.0000 C   0  0  0  0  0  0  0  0  0  0  0  0
   30.9632   -8.2364    0.0000 C   0  0  0  0  0  0  0  0  0  0  0  0
   29.8114   -6.2414    0.0000 C   0  0  0  0  0  0  0  0  0  0  0  0
   29.8114  -10.2314    0.0000 O   0  0  0  0  0  0  0  0  0  0  0  0
   28.6594  -12.2264    0.0000 C   0  0  0  0  0  0  0  0  0  0  0  0
   28.6593  -13.5564    0.0000 C   0  0  0  0  0  0  0  0  0  0  0  0
   29.8113  -11.5614    0.0000 C   0  0  0  0  0  0  0  0  0  0  0  0
   26.3557  -13.5562    0.0000 O   0  0  0  0  0  0  0  0  0  0  0  0
   24.0518  -13.5557    0.0000 C   0  0  0  0  0  0  0  0  0  0  0  0
   22.8999  -14.2206    0.0000 C   0  0  0  0  0  0  0  0  0  0  0  0
   25.2035  -14.2209    0.0000 C   0  0  0  0  0  0  0  0  0  0  0  0
   21.7485  -12.2255    0.0000 O   0  0  0  0  0  0  0  0  0  0  0  0
   20.5974  -10.2316    0.0000 C   0  0  0  0  0  0  0  0  0  0  0  0
   19.4455   -9.5667    0.0000 C   0  0  0  0  0  0  0  0  0  0  0  0
   20.5976  -11.5616    0.0000 C   0  0  0  0  0  0  0  0  0  0  0  0
   20.5970   -7.5721    0.0000 O   0  0  0  0  0  0  0  0  0  0  0  0
   21.7485   -5.5764    0.0000 C   0  0  0  0  0  0  0  0  0  0  0  0
   21.7485   -4.2464    0.0000 C   0  0  0  0  0  0  0  0  0  0  0  0
   20.5967   -6.2414    0.0000 C   0  0  0  0  0  0  0  0  0  0  0  0
   24.0523   -8.2362    0.0000 C   0  0  0  0  0  0  0  0  0  0  0  0
   26.3559   -8.2364    0.0000 C   0  0  0  0  0  0  0  0  0  0  0  0
   25.2039  -10.2310    0.0000 C   0  0  0  0  0  0  0  0  0  0  0  0
  2  1  1  0  0  0  0
  3  2  1  0  0  0  0
  4  3  1  0  0  0  0
  6  5  1  0  0  0  0
  7  5  1  0  0  0  0
  1  7  1  0  0  0  0
  9  8  1  0  0  0  0
  6  8  1  0  0  0  0
 10  9  1  0  0  0  0
 11  4  1  0  0  0  0
 13 11  1  0  0  0  0
 13 12  1  0  0  0  0
 15 14  1  0  0  0  0
 16 15  1  0  0  0  0
 16 12  1  0  0  0  0
 17 10  1  0  0  0  0
 18 17  1  0  0  0  0
 14 18  1  0  0  0  0
  2 19  2  0  0  0  0
  7 20  1  6  0  0  0
 20 21  1  0  0  0  0
 20 22  1  0  0  0  0
  5 23  2  0  0  0  0
  8 24  1  1  0  0  0
 24 25  1  0  0  0  0
 24 26  1  0  0  0  0
  9 27  2  0  0  0  0
 17 28  1  6  0  0  0
 28 29  1  0  0  0  0
 28 30  1  0  0  0  0
 18 31  2  0  0  0  0
 15 32  1  1  0  0  0
 32 33  1  0  0  0  0
 32 34  1  0  0  0  0
 16 35  2  0  0  0  0
 13 36  1  6  0  0  0
 36 37  1  0  0  0  0
 36 38  1  0  0  0  0
 11 39  2  0  0  0  0
  3 40  1  1  0  0  0
 40 41  1  0  0  0  0
 40 42  1  0  0  0  0
  4 43  1  0  0  0  0
  6 44  1  0  0  0  0
 14 45  1  0  0  0  0
M  END
> <ID>
CHEBI:64649

> <NAME>
enniatin B

$$$$

Marvin  05231217072D          

 48 48  0  0  1  0            999 V2000
   25.2040   -6.2414    0.0000 O   0  0  0  0  0  0  0  0  0  0  0  0
   24.0521   -5.5764    0.0000 C   0  0  0  0  0  0  0  0  0  0  0  0
   22.9003   -6.2414    0.0000 C   0  0  0  0  0  0  0  0  0  0  0  0
   22.9003   -7.5714    0.0000 N   0  0  0  0  0  0  0  0  0  0  0  0
   27.5077   -6.2414    0.0000 C   0  0  0  0  0  0  0  0  0  0  0  0
   27.5077   -7.5714    0.0000 N   0  0  0  0  0  0  0  0  0  0  0  0
   26.3558   -5.5764    0.0000 C   0  0  0  0  0  0  0  0  0  0  0  0
   28.6596   -8.2364    0.0000 C   0  0  0  0  0  0  0  0  0  0  0  0
   28.6596   -9.5664    0.0000 C   0  0  0  0  0  0  0  0  0  0  0  0
   27.5077  -10.2314    0.0000 O   0  0  0  0  0  0  0  0  0  0  0  0
   21.7490   -8.2368    0.0000 C   0  0  0  0  0  0  0  0  0  0  0  0
   22.9008  -10.2311    0.0000 O   0  0  0  0  0  0  0  0  0  0  0  0
   21.7491   -9.5664    0.0000 C   0  0  0  0  0  0  0  0  0  0  0  0
   25.2038  -11.5610    0.0000 N   0  0  0  0  0  0  0  0  0  0  0  0
   24.0520  -12.2257    0.0000 C   0  0  0  0  0  0  0  0  0  0  0  0
   22.9004  -11.5607    0.0000 C   0  0  0  0  0  0  0  0  0  0  0  0
   27.5076  -11.5613    0.0000 C   0  0  0  0  0  0  0  0  0  0  0  0
   26.3558  -12.2262    0.0000 C   0  0  0  0  0  0  0  0  0  0  0  0
   24.0521   -4.2464    0.0000 O   0  0  0  0  0  0  0  0  0  0  0  0
   26.3558   -4.2464    0.0000 C   0  0  0  0  0  0  0  0  0  0  0  0
   27.5076   -3.5814    0.0000 C   0  0  0  0  0  0  0  0  0  0  0  0
   25.2039   -3.5814    0.0000 C   0  0  0  0  0  0  0  0  0  0  0  0
   28.6595   -5.5764    0.0000 O   0  0  0  0  0  0  0  0  0  0  0  0
   29.8114   -7.5714    0.0000 C   0  0  0  0  0  0  0  0  0  0  0  0
   30.9632   -8.2364    0.0000 C   0  0  0  0  0  0  0  0  0  0  0  0
   29.8114  -10.2314    0.0000 O   0  0  0  0  0  0  0  0  0  0  0  0
   28.6594  -12.2264    0.0000 C   0  0  0  0  0  0  0  0  0  0  0  0
   28.6593  -13.5564    0.0000 C   0  0  0  0  0  0  0  0  0  0  0  0
   29.8113  -11.5614    0.0000 C   0  0  0  0  0  0  0  0  0  0  0  0
   26.3557  -13.5562    0.0000 O   0  0  0  0  0  0  0  0  0  0  0  0
   24.0518  -13.5557    0.0000 C   0  0  0  0  0  0  0  0  0  0  0  0
   22.8999  -14.2206    0.0000 C   0  0  0  0  0  0  0  0  0  0  0  0
   25.2035  -14.2209    0.0000 C   0  0  0  0  0  0  0  0  0  0  0  0
   21.7485  -12.2255    0.0000 O   0  0  0  0  0  0  0  0  0  0  0  0
   20.5974  -10.2316    0.0000 C   0  0  0  0  0  0  0  0  0  0  0  0
   19.4455   -9.5667    0.0000 C   0  0  0  0  0  0  0  0  0  0  0  0
   20.5976  -11.5616    0.0000 C   0  0  0  0  0  0  0  0  0  0  0  0
   20.5970   -7.5721    0.0000 O   0  0  0  0  0  0  0  0  0  0  0  0
   21.7485   -5.5764    0.0000 C   0  0  0  0  0  0  0  0  0  0  0  0
   21.7485   -4.2464    0.0000 C   0  0  0  0  0  0  0  0  0  0  0  0
   20.5967   -6.2414    0.0000 C   0  0  0  0  0  0  0  0  0  0  0  0
   24.0523   -8.2362    0.0000 C   0  0  0  0  0  0  0  0  0  0  0  0
   26.3559   -8.2364    0.0000 C   0  0  0  0  0  0  0  0  0  0  0  0
   25.2039  -10.2310    0.0000 C   0  0  0  0  0  0  0  0  0  0  0  0
   19.4449   -5.5764    0.0000 C   0  0  0  0  0  0  0  0  0  0  0  0
   29.8114   -6.2414    0.0000 C   0  0  0  0  0  0  0  0  0  0  0  0
   30.9632   -5.5764    0.0000 C   0  0  0  0  0  0  0  0  0  0  0  0
   25.2034  -15.5509    0.0000 C   0  0  0  0  0  0  0  0  0  0  0  0
  2  1  1  0  0  0  0
  3  2  1  0  0  0  0
  3  4  1  1  0  0  0
  6  5  1  0  0  0  0
  7  5  1  0  0  0  0
  1  7  1  0  0  0  0
  9  8  1  0  0  0  0
  8  6  1  1  0  0  0
 10  9  1  0  0  0  0
 11  4  1  0  0  0  0
 13 11  1  0  0  0  0
 13 12  1  0  0  0  0
 15 14  1  1  0  0  0
 16 15  1  0  0  0  0
 16 12  1  0  0  0  0
 17 10  1  0  0  0  0
 18 17  1  0  0  0  0
 14 18  1  0  0  0  0
  2 19  2  0  0  0  0
  7 20  1  6  0  0  0
 20 21  1  0  0  0  0
 20 22  1  0  0  0  0
  5 23  2  0  0  0  0
  8 24  1  0  0  0  0
 24 25  1  6  0  0  0
  9 26  2  0  0  0  0
 17 27  1  6  0  0  0
 27 28  1  0  0  0  0
 27 29  1  0  0  0  0
 18 30  2  0  0  0  0
 15 31  1  0  0  0  0
 31 32  1  6  0  0  0
 31 33  1  0  0  0  0
 16 34  2  0  0  0  0
 13 35  1  6  0  0  0
 35 36  1  0  0  0  0
 35 37  1  0  0  0  0
 11 38  2  0  0  0  0
  3 39  1  0  0  0  0
 39 40  1  6  0  0  0
 39 41  1  0  0  0  0
  4 42  1  0  0  0  0
  6 43  1  0  0  0  0
 14 44  1  0  0  0  0
 41 45  1  0  0  0  0
 24 46  1  0  0  0  0
 46 47  1  0  0  0  0
 33 48  1  0  0  0  0
M  END
> <ID>
CHEBI:64651

> <NAME>
enniatin A

$$$$

Mrv0541 05091415452D          

106106  0  0  0  0            999 V2000
    5.9150   -7.1309    0.0000 N   0  0  0  0  0  0  0  0  0  0  0  0
    6.6295   -7.5434    0.0000 C   0  0  2  0  0  0  0  0  0  0  0  0
    7.3439   -7.1309    0.0000 C   0  0  0  0  0  0  0  0  0  0  0  0
    8.0584   -7.5434    0.0000 N   0  0  0  0  0  0  0  0  0  0  0  0
    8.7729   -7.1309    0.0000 C   0  0  2  0  0  0  0  0  0  0  0  0
    9.4873   -7.5434    0.0000 C   0  0  0  0  0  0  0  0  0  0  0  0
   10.2018   -7.1309    0.0000 N   0  0  0  0  0  0  0  0  0  0  0  0
   10.9163   -7.5434    0.0000 C   0  0  2  0  0  0  0  0  0  0  0  0
   11.6308   -7.1309    0.0000 C   0  0  0  0  0  0  0  0  0  0  0  0
   12.3452   -7.5434    0.0000 N   0  0  0  0  0  0  0  0  0  0  0  0
   13.0597   -7.1309    0.0000 C   0  0  2  0  0  0  0  0  0  0  0  0
   13.7742   -7.5434    0.0000 C   0  0  0  0  0  0  0  0  0  0  0  0
   14.4886   -7.1309    0.0000 N   0  0  0  0  0  0  0  0  0  0  0  0
   15.2031   -7.5434    0.0000 C   0  0  2  0  0  0  0  0  0  0  0  0
   15.9176   -7.1309    0.0000 C   0  0  0  0  0  0  0  0  0  0  0  0
   16.6320   -7.5434    0.0000 N   0  0  0  0  0  0  0  0  0  0  0  0
   17.3465   -7.1309    0.0000 C   0  0  2  0  0  0  0  0  0  0  0  0
   18.0610   -7.5434    0.0000 C   0  0  0  0  0  0  0  0  0  0  0  0
   18.7755   -7.1309    0.0000 N   0  0  0  0  0  0  0  0  0  0  0  0
   19.4899   -7.5434    0.0000 C   0  0  2  0  0  0  0  0  0  0  0  0
   20.2044   -7.1309    0.0000 C   0  0  0  0  0  0  0  0  0  0  0  0
   20.9189   -7.5434    0.0000 N   0  0  0  0  0  0  0  0  0  0  0  0
   21.6333   -7.1309    0.0000 C   0  0  2  0  0  0  0  0  0  0  0  0
   22.3478   -7.5434    0.0000 C   0  0  0  0  0  0  0  0  0  0  0  0
   23.0623   -7.1309    0.0000 N   0  0  0  0  0  0  0  0  0  0  0  0
   23.7768   -7.5434    0.0000 C   0  0  2  0  0  0  0  0  0  0  0  0
   24.4912   -7.1309    0.0000 C   0  0  0  0  0  0  0  0  0  0  0  0
   25.2057   -7.5434    0.0000 N   0  0  0  0  0  0  0  0  0  0  0  0
   24.4924   -6.3059    0.0000 O   0  0  0  0  0  0  0  0  0  0  0  0
   22.3454   -8.3734    0.0000 O   0  0  0  0  0  0  0  0  0  0  0  0
   20.2084   -6.3059    0.0000 O   0  0  0  0  0  0  0  0  0  0  0  0
   18.0614   -8.3734    0.0000 O   0  0  0  0  0  0  0  0  0  0  0  0
   15.9144   -6.3059    0.0000 O   0  0  0  0  0  0  0  0  0  0  0  0
   13.7773   -8.3734    0.0000 O   0  0  0  0  0  0  0  0  0  0  0  0
   11.6303   -6.3059    0.0000 O   0  0  0  0  0  0  0  0  0  0  0  0
    9.4834   -8.3734    0.0000 O   0  0  0  0  0  0  0  0  0  0  0  0
    7.3463   -6.3059    0.0000 O   0  0  0  0  0  0  0  0  0  0  0  0
   -4.8021   -7.5434    0.0000 N   0  0  0  0  0  0  0  0  0  0  0  0
   -4.0876   -7.1309    0.0000 C   0  0  2  0  0  0  0  0  0  0  0  0
   -3.3731   -7.5434    0.0000 C   0  0  0  0  0  0  0  0  0  0  0  0
   -2.6587   -7.1309    0.0000 N   0  0  0  0  0  0  0  0  0  0  0  0
   -1.9442   -7.5434    0.0000 C   0  0  2  0  0  0  0  0  0  0  0  0
   -1.2297   -7.1309    0.0000 C   0  0  0  0  0  0  0  0  0  0  0  0
   -0.5153   -7.5434    0.0000 N   0  0  0  0  0  0  0  0  0  0  0  0
    0.1992   -7.1309    0.0000 C   0  0  2  0  0  0  0  0  0  0  0  0
    0.9137   -7.5434    0.0000 C   0  0  0  0  0  0  0  0  0  0  0  0
    1.6282   -7.1309    0.0000 N   0  0  0  0  0  0  0  0  0  0  0  0
    2.3426   -7.5434    0.0000 C   0  0  2  0  0  0  0  0  0  0  0  0
    3.0571   -7.1309    0.0000 C   0  0  0  0  0  0  0  0  0  0  0  0
    3.7716   -7.5434    0.0000 N   0  0  0  0  0  0  0  0  0  0  0  0
    4.4860   -7.1309    0.0000 C   0  0  2  0  0  0  0  0  0  0  0  0
    5.2005   -7.5434    0.0000 C   0  0  0  0  0  0  0  0  0  0  0  0
    5.1973   -8.3684    0.0000 O   0  0  0  0  0  0  0  0  0  0  0  0
    3.0603   -6.3010    0.0000 O   0  0  0  0  0  0  0  0  0  0  0  0
    0.9133   -8.3684    0.0000 O   0  0  0  0  0  0  0  0  0  0  0  0
   -1.2337   -6.3010    0.0000 O   0  0  0  0  0  0  0  0  0  0  0  0
   -3.3708   -8.3684    0.0000 O   0  0  0  0  0  0  0  0  0  0  0  0
   -4.0844   -6.3059    0.0000 C   0  0  1  0  0  0  0  0  0  0  0  0
   -4.7973   -5.8907    0.0000 C   0  0  0  0  0  0  0  0  0  0  0  0
   -3.3683   -5.8962    0.0000 C   0  0  0  0  0  0  0  0  0  0  0  0
   -3.3591   -5.0691    0.0000 C   0  0  0  0  0  0  0  0  0  0  0  0
   -1.9474   -8.3734    0.0000 C   0  0  0  0  0  0  0  0  0  0  0  0
   -1.2317   -8.7809    0.0000 C   0  0  0  0  0  0  0  0  0  0  0  0
   -1.2317   -9.6059    0.0000 N   0  0  0  0  0  0  0  0  0  0  0  0
   -0.5185   -8.3663    0.0000 O   0  0  0  0  0  0  0  0  0  0  0  0
    0.1992   -6.3059    0.0000 C   0  0  0  0  0  0  0  0  0  0  0  0
    0.9137   -5.8935    0.0000 C   0  0  0  0  0  0  0  0  0  0  0  0
    0.9137   -5.0685    0.0000 C   0  0  0  0  0  0  0  0  0  0  0  0
    1.6282   -6.3060    0.0000 C   0  0  0  0  0  0  0  0  0  0  0  0
    2.3466   -8.3734    0.0000 C   0  0  0  0  0  0  0  0  0  0  0  0
    3.0631   -8.7825    0.0000 C   0  0  0  0  0  0  0  0  0  0  0  0
    3.0670   -9.6075    0.0000 C   0  0  0  0  0  0  0  0  0  0  0  0
    3.7834  -10.0166    0.0000 C   0  0  0  0  0  0  0  0  0  0  0  0
    4.4860   -6.3059    0.0000 C   0  0  0  0  0  0  0  0  0  0  0  0
    8.7729   -6.3059    0.0000 C   0  0  0  0  0  0  0  0  0  0  0  0
   10.9163   -8.3684    0.0000 C   0  0  0  0  0  0  0  0  0  0  0  0
   13.0617   -6.3059    0.0000 C   0  0  0  0  0  0  0  0  0  0  0  0
   13.7771   -5.8952    0.0000 C   0  0  0  0  0  0  0  0  0  0  0  0
   13.7791   -5.0702    0.0000 C   0  0  0  0  0  0  0  0  0  0  0  0
   14.4906   -6.3094    0.0000 C   0  0  0  0  0  0  0  0  0  0  0  0
   15.1987   -8.3734    0.0000 C   0  0  0  0  0  0  0  0  0  0  0  0
   17.3505   -6.3010    0.0000 C   0  0  0  0  0  0  0  0  0  0  0  0
   18.0669   -5.8919    0.0000 C   0  0  0  0  0  0  0  0  0  0  0  0
   18.0709   -5.0669    0.0000 C   0  0  0  0  0  0  0  0  0  0  0  0
   18.7873   -4.6578    0.0000 C   0  0  0  0  0  0  0  0  0  0  0  0
   19.4939   -8.3734    0.0000 C   0  0  0  0  0  0  0  0  0  0  0  0
   20.2103   -8.7825    0.0000 C   0  0  0  0  0  0  0  0  0  0  0  0
   20.2143   -9.6075    0.0000 C   0  0  0  0  0  0  0  0  0  0  0  0
   20.9307  -10.0166    0.0000 C   0  0  0  0  0  0  0  0  0  0  0  0
   21.6365   -6.3059    0.0000 C   0  0  0  0  0  0  0  0  0  0  0  0
   20.9237   -5.8907    0.0000 C   0  0  0  0  0  0  0  0  0  0  0  0
   22.3526   -5.8962    0.0000 C   0  0  0  0  0  0  0  0  0  0  0  0
   23.7767   -8.3734    0.0000 C   0  0  0  0  0  0  0  0  0  0  0  0
   24.4912   -8.7859    0.0000 C   0  0  0  0  0  0  0  0  0  0  0  0
    3.7879  -10.8385    0.0000 N   0  0  0  0  0  0  0  0  0  0  0  0
   18.7870   -3.8309    0.0000 N   0  0  0  0  0  0  0  0  0  0  0  0
   20.9340  -10.8385    0.0000 N   0  0  0  0  0  0  0  0  0  0  0  0
    6.6326   -8.3684    0.0000 C   0  0  1  0  0  0  0  0  0  0  0  0
    5.9198   -8.7837    0.0000 C   0  0  0  0  0  0  0  0  0  0  0  0
    7.3487   -8.7782    0.0000 C   0  0  0  0  0  0  0  0  0  0  0  0
    7.3579   -9.6053    0.0000 C   0  0  0  0  0  0  0  0  0  0  0  0
   25.2057   -8.3735    0.0000 C   0  0  0  0  0  0  0  0  0  0  0  0
   24.4912   -9.6110    0.0000 C   0  0  0  0  0  0  0  0  0  0  0  0
   25.9202   -8.7861    0.0000 C   0  0  0  0  0  0  0  0  0  0  0  0
   25.2056  -10.0235    0.0000 C   0  0  0  0  0  0  0  0  0  0  0  0
   25.9201   -9.6110    0.0000 C   0  0  0  0  0  0  0  0  0  0  0  0
  2  1  1  6  0  0  0
  3  2  1  0  0  0  0
  4  3  1  0  0  0  0
  5  4  1  1  0  0  0
  6  5  1  0  0  0  0
  7  6  1  0  0  0  0
  8  7  1  6  0  0  0
  9  8  1  0  0  0  0
 10  9  1  0  0  0  0
 11 10  1  1  0  0  0
 12 11  1  0  0  0  0
 13 12  1  0  0  0  0
 14 13  1  6  0  0  0
 15 14  1  0  0  0  0
 16 15  1  0  0  0  0
 17 16  1  1  0  0  0
 18 17  1  0  0  0  0
 19 18  1  0  0  0  0
 20 19  1  6  0  0  0
 21 20  1  0  0  0  0
 22 21  1  0  0  0  0
 23 22  1  1  0  0  0
 24 23  1  0  0  0  0
 25 24  1  0  0  0  0
 26 25  1  6  0  0  0
 27 26  1  0  0  0  0
 28 27  1  0  0  0  0
 27 29  2  0  0  0  0
 24 30  2  0  0  0  0
 21 31  2  0  0  0  0
 18 32  2  0  0  0  0
 15 33  2  0  0  0  0
 12 34  2  0  0  0  0
  9 35  2  0  0  0  0
  6 36  2  0  0  0  0
  3 37  2  0  0  0  0
 39 38  1  1  0  0  0
 40 39  1  0  0  0  0
 41 40  1  0  0  0  0
 42 41  1  6  0  0  0
 43 42  1  0  0  0  0
 44 43  1  0  0  0  0
 45 44  1  1  0  0  0
 46 45  1  0  0  0  0
 47 46  1  0  0  0  0
 48 47  1  6  0  0  0
 49 48  1  0  0  0  0
 50 49  1  0  0  0  0
 51 50  1  1  0  0  0
 52 51  1  0  0  0  0
  1 52  1  0  0  0  0
 52 53  2  0  0  0  0
 49 54  2  0  0  0  0
 46 55  2  0  0  0  0
 43 56  2  0  0  0  0
 40 57  2  0  0  0  0
 39 58  1  0  0  0  0
 58 59  1  1  0  0  0
 58 60  1  0  0  0  0
 60 61  1  0  0  0  0
 42 62  1  0  0  0  0
 62 63  1  0  0  0  0
 63 64  1  0  0  0  0
 63 65  2  0  0  0  0
 45 66  1  0  0  0  0
 66 67  1  0  0  0  0
 67 68  1  0  0  0  0
 67 69  1  0  0  0  0
 48 70  1  0  0  0  0
 70 71  1  0  0  0  0
 71 72  1  0  0  0  0
 72 73  1  0  0  0  0
 51 74  1  0  0  0  0
  5 75  1  0  0  0  0
  8 76  1  0  0  0  0
 11 77  1  0  0  0  0
 77 78  1  0  0  0  0
 78 79  1  0  0  0  0
 78 80  1  0  0  0  0
 14 81  1  0  0  0  0
 17 82  1  0  0  0  0
 82 83  1  0  0  0  0
 83 84  1  0  0  0  0
 84 85  1  0  0  0  0
 20 86  1  0  0  0  0
 86 87  1  0  0  0  0
 87 88  1  0  0  0  0
 88 89  1  0  0  0  0
 23 90  1  0  0  0  0
 90 91  1  0  0  0  0
 90 92  1  0  0  0  0
 26 93  1  0  0  0  0
 93 94  1  0  0  0  0
 73 95  1  0  0  0  0
 85 96  1  0  0  0  0
 89 97  1  0  0  0  0
  2 98  1  0  0  0  0
 98 99  1  6  0  0  0
 98100  1  0  0  0  0
100101  1  0  0  0  0
102 94  1  0  0  0  0
103 94  2  0  0  0  0
104102  2  0  0  0  0
105103  1  0  0  0  0
106104  1  0  0  0  0
106105  2  0  0  0  0
M  END
> <ID>
CHEBI:78507

> <NAME>
mastoparan-AF

$$$$

Mrv0541 05091416142D          

115116  0  0  0  0            999 V2000
    5.7957  -14.0391    0.0000 N   0  0  0  0  0  0  0  0  0  0  0  0
    6.5102  -14.4516    0.0000 C   0  0  2  0  0  0  0  0  0  0  0  0
    7.2246  -14.0391    0.0000 C   0  0  0  0  0  0  0  0  0  0  0  0
    7.9391  -14.4516    0.0000 N   0  0  0  0  0  0  0  0  0  0  0  0
    8.6536  -14.0391    0.0000 C   0  0  2  0  0  0  0  0  0  0  0  0
    9.3681  -14.4516    0.0000 C   0  0  0  0  0  0  0  0  0  0  0  0
   10.0825  -14.0391    0.0000 N   0  0  0  0  0  0  0  0  0  0  0  0
   10.7970  -14.4516    0.0000 C   0  0  2  0  0  0  0  0  0  0  0  0
   11.5115  -14.0391    0.0000 C   0  0  0  0  0  0  0  0  0  0  0  0
   12.2259  -14.4516    0.0000 N   0  0  0  0  0  0  0  0  0  0  0  0
   12.9404  -14.0391    0.0000 C   0  0  2  0  0  0  0  0  0  0  0  0
   13.6549  -14.4516    0.0000 C   0  0  0  0  0  0  0  0  0  0  0  0
   14.3694  -14.0391    0.0000 N   0  0  0  0  0  0  0  0  0  0  0  0
   15.0838  -14.4516    0.0000 C   0  0  2  0  0  0  0  0  0  0  0  0
   15.7983  -14.0391    0.0000 C   0  0  0  0  0  0  0  0  0  0  0  0
   16.5128  -14.4516    0.0000 N   0  0  0  0  0  0  0  0  0  0  0  0
   17.2272  -14.0391    0.0000 C   0  0  2  0  0  0  0  0  0  0  0  0
   17.9417  -14.4516    0.0000 C   0  0  0  0  0  0  0  0  0  0  0  0
   18.6562  -14.0391    0.0000 N   0  0  0  0  0  0  0  0  0  0  0  0
   19.3707  -14.4516    0.0000 C   0  0  2  0  0  0  0  0  0  0  0  0
   20.0851  -14.0391    0.0000 C   0  0  0  0  0  0  0  0  0  0  0  0
   20.7996  -14.4516    0.0000 N   0  0  0  0  0  0  0  0  0  0  0  0
   21.5141  -14.0391    0.0000 C   0  0  2  0  0  0  0  0  0  0  0  0
   22.2285  -14.4516    0.0000 C   0  0  0  0  0  0  0  0  0  0  0  0
   22.9430  -14.0391    0.0000 N   0  0  0  0  0  0  0  0  0  0  0  0
   23.6575  -14.4516    0.0000 C   0  0  2  0  0  0  0  0  0  0  0  0
   24.3720  -14.0391    0.0000 C   0  0  0  0  0  0  0  0  0  0  0  0
   25.0864  -14.4516    0.0000 N   0  0  0  0  0  0  0  0  0  0  0  0
   24.3731  -13.2141    0.0000 O   0  0  0  0  0  0  0  0  0  0  0  0
   22.2261  -15.2816    0.0000 O   0  0  0  0  0  0  0  0  0  0  0  0
   20.0891  -13.2141    0.0000 O   0  0  0  0  0  0  0  0  0  0  0  0
   17.9421  -15.2816    0.0000 O   0  0  0  0  0  0  0  0  0  0  0  0
   15.7951  -13.2141    0.0000 O   0  0  0  0  0  0  0  0  0  0  0  0
   13.6581  -15.2816    0.0000 O   0  0  0  0  0  0  0  0  0  0  0  0
   11.5111  -13.2141    0.0000 O   0  0  0  0  0  0  0  0  0  0  0  0
    9.3641  -15.2816    0.0000 O   0  0  0  0  0  0  0  0  0  0  0  0
    7.2270  -13.2141    0.0000 O   0  0  0  0  0  0  0  0  0  0  0  0
   -4.9214  -14.4516    0.0000 N   0  0  0  0  0  0  0  0  0  0  0  0
   -4.2069  -14.0391    0.0000 C   0  0  2  0  0  0  0  0  0  0  0  0
   -3.4924  -14.4516    0.0000 C   0  0  0  0  0  0  0  0  0  0  0  0
   -2.7779  -14.0391    0.0000 N   0  0  0  0  0  0  0  0  0  0  0  0
   -2.0635  -14.4516    0.0000 C   0  0  2  0  0  0  0  0  0  0  0  0
   -1.3490  -14.0391    0.0000 C   0  0  0  0  0  0  0  0  0  0  0  0
   -0.6345  -14.4516    0.0000 N   0  0  0  0  0  0  0  0  0  0  0  0
    0.0799  -14.0391    0.0000 C   0  0  2  0  0  0  0  0  0  0  0  0
    0.7944  -14.4516    0.0000 C   0  0  0  0  0  0  0  0  0  0  0  0
    1.5089  -14.0391    0.0000 N   0  0  0  0  0  0  0  0  0  0  0  0
    2.2234  -14.4516    0.0000 C   0  0  2  0  0  0  0  0  0  0  0  0
    2.9378  -14.0391    0.0000 C   0  0  0  0  0  0  0  0  0  0  0  0
    3.6523  -14.4516    0.0000 N   0  0  0  0  0  0  0  0  0  0  0  0
    4.3668  -14.0391    0.0000 C   0  0  2  0  0  0  0  0  0  0  0  0
    5.0812  -14.4516    0.0000 C   0  0  0  0  0  0  0  0  0  0  0  0
    5.0780  -15.2766    0.0000 O   0  0  0  0  0  0  0  0  0  0  0  0
    2.9410  -13.2091    0.0000 O   0  0  0  0  0  0  0  0  0  0  0  0
    0.7940  -15.2766    0.0000 O   0  0  0  0  0  0  0  0  0  0  0  0
   -1.3530  -13.2091    0.0000 O   0  0  0  0  0  0  0  0  0  0  0  0
   -3.4900  -15.2766    0.0000 O   0  0  0  0  0  0  0  0  0  0  0  0
   -4.2037  -13.2141    0.0000 C   0  0  1  0  0  0  0  0  0  0  0  0
   -4.9166  -12.7988    0.0000 C   0  0  0  0  0  0  0  0  0  0  0  0
   -3.4876  -12.8043    0.0000 C   0  0  0  0  0  0  0  0  0  0  0  0
   -3.4784  -11.9772    0.0000 C   0  0  0  0  0  0  0  0  0  0  0  0
    0.0799  -13.2141    0.0000 C   0  0  0  0  0  0  0  0  0  0  0  0
    0.7944  -12.8016    0.0000 C   0  0  0  0  0  0  0  0  0  0  0  0
    2.2273  -15.2816    0.0000 C   0  0  0  0  0  0  0  0  0  0  0  0
    2.9438  -15.6906    0.0000 C   0  0  0  0  0  0  0  0  0  0  0  0
    2.9477  -16.5156    0.0000 C   0  0  0  0  0  0  0  0  0  0  0  0
    3.6642  -16.9247    0.0000 C   0  0  0  0  0  0  0  0  0  0  0  0
    4.3668  -13.2141    0.0000 C   0  0  0  0  0  0  0  0  0  0  0  0
    8.6536  -13.2141    0.0000 C   0  0  0  0  0  0  0  0  0  0  0  0
   10.7970  -15.2766    0.0000 C   0  0  0  0  0  0  0  0  0  0  0  0
   12.9424  -13.2141    0.0000 C   0  0  0  0  0  0  0  0  0  0  0  0
   15.0794  -15.2816    0.0000 C   0  0  0  0  0  0  0  0  0  0  0  0
   17.2312  -13.2091    0.0000 C   0  0  0  0  0  0  0  0  0  0  0  0
   17.9477  -12.8000    0.0000 C   0  0  0  0  0  0  0  0  0  0  0  0
   17.9516  -11.9751    0.0000 C   0  0  0  0  0  0  0  0  0  0  0  0
   18.6681  -11.5660    0.0000 C   0  0  0  0  0  0  0  0  0  0  0  0
   19.3746  -15.2816    0.0000 C   0  0  0  0  0  0  0  0  0  0  0  0
   20.0911  -15.6906    0.0000 C   0  0  0  0  0  0  0  0  0  0  0  0
   20.0950  -16.5156    0.0000 C   0  0  0  0  0  0  0  0  0  0  0  0
   20.8115  -16.9247    0.0000 C   0  0  0  0  0  0  0  0  0  0  0  0
   21.5173  -13.2141    0.0000 C   0  0  0  0  0  0  0  0  0  0  0  0
   20.8044  -12.7988    0.0000 C   0  0  0  0  0  0  0  0  0  0  0  0
   22.2333  -12.8043    0.0000 C   0  0  0  0  0  0  0  0  0  0  0  0
    3.6686  -17.7466    0.0000 N   0  0  0  0  0  0  0  0  0  0  0  0
   18.6677  -10.7391    0.0000 N   0  0  0  0  0  0  0  0  0  0  0  0
   20.8147  -17.7466    0.0000 N   0  0  0  0  0  0  0  0  0  0  0  0
    6.5134  -15.2766    0.0000 C   0  0  1  0  0  0  0  0  0  0  0  0
   -2.0595  -15.2816    0.0000 C   0  0  0  0  0  0  0  0  0  0  0  0
   -1.3431  -15.6906    0.0000 C   0  0  0  0  0  0  0  0  0  0  0  0
   -1.3391  -16.5156    0.0000 C   0  0  0  0  0  0  0  0  0  0  0  0
   -0.6227  -16.9247    0.0000 C   0  0  0  0  0  0  0  0  0  0  0  0
   -0.6182  -17.7466    0.0000 N   0  0  0  0  0  0  0  0  0  0  0  0
    0.8807  -11.9811    0.0000 C   0  0  0  0  0  0  0  0  0  0  0  0
    1.5481  -13.1371    0.0000 C   0  0  0  0  0  0  0  0  0  0  0  0
    1.6876  -11.8096    0.0000 C   0  0  0  0  0  0  0  0  0  0  0  0
    2.1002  -12.5240    0.0000 N   0  0  0  0  0  0  0  0  0  0  0  0
    0.3287  -11.3680    0.0000 C   0  0  0  0  0  0  0  0  0  0  0  0
    0.5837  -10.5834    0.0000 C   0  0  0  0  0  0  0  0  0  0  0  0
    1.9426  -11.0250    0.0000 C   0  0  0  0  0  0  0  0  0  0  0  0
    1.3906  -10.4120    0.0000 C   0  0  0  0  0  0  0  0  0  0  0  0
   11.5115  -15.6891    0.0000 C   0  0  0  0  0  0  0  0  0  0  0  0
    5.8005  -15.6918    0.0000 C   0  0  0  0  0  0  0  0  0  0  0  0
    7.2294  -15.6863    0.0000 C   0  0  0  0  0  0  0  0  0  0  0  0
    7.2386  -16.5135    0.0000 C   0  0  0  0  0  0  0  0  0  0  0  0
    9.3681  -12.8016    0.0000 C   0  0  0  0  0  0  0  0  0  0  0  0
    9.3681  -11.9766    0.0000 C   0  0  0  0  0  0  0  0  0  0  0  0
   10.0825  -13.2141    0.0000 C   0  0  0  0  0  0  0  0  0  0  0  0
   11.5115  -16.5141    0.0000 O   0  0  0  0  0  0  0  0  0  0  0  0
   12.2259  -15.2766    0.0000 O   0  0  0  0  0  0  0  0  0  0  0  0
   14.3628  -15.6903    0.0000 C   0  0  0  0  0  0  0  0  0  0  0  0
   15.7917  -15.6978    0.0000 C   0  0  0  0  0  0  0  0  0  0  0  0
   23.6607  -15.2766    0.0000 C   0  0  1  0  0  0  0  0  0  0  0  0
   22.9478  -15.6918    0.0000 C   0  0  0  0  0  0  0  0  0  0  0  0
   24.3767  -15.6863    0.0000 C   0  0  0  0  0  0  0  0  0  0  0  0
   24.3859  -16.5135    0.0000 C   0  0  0  0  0  0  0  0  0  0  0  0
  2  1  1  6  0  0  0
  3  2  1  0  0  0  0
  4  3  1  0  0  0  0
  5  4  1  1  0  0  0
  6  5  1  0  0  0  0
  7  6  1  0  0  0  0
  8  7  1  6  0  0  0
  9  8  1  0  0  0  0
 10  9  1  0  0  0  0
 11 10  1  1  0  0  0
 12 11  1  0  0  0  0
 13 12  1  0  0  0  0
 14 13  1  6  0  0  0
 15 14  1  0  0  0  0
 16 15  1  0  0  0  0
 17 16  1  1  0  0  0
 18 17  1  0  0  0  0
 19 18  1  0  0  0  0
 20 19  1  6  0  0  0
 21 20  1  0  0  0  0
 22 21  1  0  0  0  0
 23 22  1  1  0  0  0
 24 23  1  0  0  0  0
 25 24  1  0  0  0  0
 26 25  1  6  0  0  0
 27 26  1  0  0  0  0
 28 27  1  0  0  0  0
 27 29  2  0  0  0  0
 24 30  2  0  0  0  0
 21 31  2  0  0  0  0
 18 32  2  0  0  0  0
 15 33  2  0  0  0  0
 12 34  2  0  0  0  0
  9 35  2  0  0  0  0
  6 36  2  0  0  0  0
  3 37  2  0  0  0  0
 39 38  1  1  0  0  0
 40 39  1  0  0  0  0
 41 40  1  0  0  0  0
 42 41  1  6  0  0  0
 43 42  1  0  0  0  0
 44 43  1  0  0  0  0
 45 44  1  1  0  0  0
 46 45  1  0  0  0  0
 47 46  1  0  0  0  0
 48 47  1  6  0  0  0
 49 48  1  0  0  0  0
 50 49  1  0  0  0  0
 51 50  1  1  0  0  0
 52 51  1  0  0  0  0
  1 52  1  0  0  0  0
 52 53  2  0  0  0  0
 49 54  2  0  0  0  0
 46 55  2  0  0  0  0
 43 56  2  0  0  0  0
 40 57  2  0  0  0  0
 39 58  1  0  0  0  0
 58 59  1  1  0  0  0
 58 60  1  0  0  0  0
 60 61  1  0  0  0  0
 45 62  1  0  0  0  0
 62 63  1  0  0  0  0
 48 64  1  0  0  0  0
 64 65  1  0  0  0  0
 65 66  1  0  0  0  0
 66 67  1  0  0  0  0
 51 68  1  0  0  0  0
  5 69  1  0  0  0  0
  8 70  1  0  0  0  0
 11 71  1  0  0  0  0
 14 72  1  0  0  0  0
 17 73  1  0  0  0  0
 73 74  1  0  0  0  0
 74 75  1  0  0  0  0
 75 76  1  0  0  0  0
 20 77  1  0  0  0  0
 77 78  1  0  0  0  0
 78 79  1  0  0  0  0
 79 80  1  0  0  0  0
 23 81  1  0  0  0  0
 81 82  1  0  0  0  0
 81 83  1  0  0  0  0
 67 84  1  0  0  0  0
 76 85  1  0  0  0  0
 80 86  1  0  0  0  0
  2 87  1  0  0  0  0
 42 88  1  0  0  0  0
 88 89  1  0  0  0  0
 89 90  1  0  0  0  0
 90 91  1  0  0  0  0
 91 92  1  0  0  0  0
 93 63  1  0  0  0  0
 94 63  2  0  0  0  0
 96 94  1  0  0  0  0
 96 95  1  0  0  0  0
 97 93  1  0  0  0  0
 95 93  2  0  0  0  0
 98 97  2  0  0  0  0
 99 95  1  0  0  0  0
100 98  1  0  0  0  0
100 99  2  0  0  0  0
 70101  1  0  0  0  0
 87102  1  6  0  0  0
 87103  1  0  0  0  0
103104  1  0  0  0  0
 69105  1  0  0  0  0
105106  1  0  0  0  0
105107  1  0  0  0  0
101108  2  0  0  0  0
101109  1  0  0  0  0
 72110  1  0  0  0  0
 72111  1  0  0  0  0
 26112  1  0  0  0  0
112113  1  6  0  0  0
112114  1  0  0  0  0
114115  1  0  0  0  0
M  END
> <ID>
CHEBI:78509

> <NAME>
mastoparan-A

$$$$

Mrv0541 05091416352D          

114115  0  0  0  0            999 V2000
    5.5174  -21.5635    0.0000 N   0  0  0  0  0  0  0  0  0  0  0  0
    6.2319  -21.9760    0.0000 C   0  0  2  0  0  0  0  0  0  0  0  0
    6.9463  -21.5635    0.0000 C   0  0  0  0  0  0  0  0  0  0  0  0
    7.6608  -21.9760    0.0000 N   0  0  0  0  0  0  0  0  0  0  0  0
    8.3753  -21.5635    0.0000 C   0  0  2  0  0  0  0  0  0  0  0  0
    9.0897  -21.9760    0.0000 C   0  0  0  0  0  0  0  0  0  0  0  0
    9.8042  -21.5635    0.0000 N   0  0  0  0  0  0  0  0  0  0  0  0
   10.5187  -21.9760    0.0000 C   0  0  2  0  0  0  0  0  0  0  0  0
   11.2332  -21.5635    0.0000 C   0  0  0  0  0  0  0  0  0  0  0  0
   11.9476  -21.9760    0.0000 N   0  0  0  0  0  0  0  0  0  0  0  0
   12.6621  -21.5635    0.0000 C   0  0  2  0  0  0  0  0  0  0  0  0
   13.3766  -21.9760    0.0000 C   0  0  0  0  0  0  0  0  0  0  0  0
   14.0910  -21.5635    0.0000 N   0  0  0  0  0  0  0  0  0  0  0  0
   14.8055  -21.9760    0.0000 C   0  0  2  0  0  0  0  0  0  0  0  0
   15.5200  -21.5635    0.0000 C   0  0  0  0  0  0  0  0  0  0  0  0
   16.2345  -21.9760    0.0000 N   0  0  0  0  0  0  0  0  0  0  0  0
   16.9489  -21.5635    0.0000 C   0  0  2  0  0  0  0  0  0  0  0  0
   17.6634  -21.9760    0.0000 C   0  0  0  0  0  0  0  0  0  0  0  0
   18.3779  -21.5635    0.0000 N   0  0  0  0  0  0  0  0  0  0  0  0
   19.0923  -21.9760    0.0000 C   0  0  2  0  0  0  0  0  0  0  0  0
   19.8068  -21.5635    0.0000 C   0  0  0  0  0  0  0  0  0  0  0  0
   20.5213  -21.9760    0.0000 N   0  0  0  0  0  0  0  0  0  0  0  0
   21.2357  -21.5635    0.0000 C   0  0  2  0  0  0  0  0  0  0  0  0
   21.9502  -21.9760    0.0000 C   0  0  0  0  0  0  0  0  0  0  0  0
   22.6647  -21.5635    0.0000 N   0  0  0  0  0  0  0  0  0  0  0  0
   23.3792  -21.9760    0.0000 C   0  0  2  0  0  0  0  0  0  0  0  0
   24.0936  -21.5635    0.0000 C   0  0  0  0  0  0  0  0  0  0  0  0
   24.8081  -21.9760    0.0000 N   0  0  0  0  0  0  0  0  0  0  0  0
   24.0948  -20.7385    0.0000 O   0  0  0  0  0  0  0  0  0  0  0  0
   21.9478  -22.8059    0.0000 O   0  0  0  0  0  0  0  0  0  0  0  0
   19.8108  -20.7385    0.0000 O   0  0  0  0  0  0  0  0  0  0  0  0
   17.6638  -22.8059    0.0000 O   0  0  0  0  0  0  0  0  0  0  0  0
   15.5168  -20.7385    0.0000 O   0  0  0  0  0  0  0  0  0  0  0  0
   13.3797  -22.8059    0.0000 O   0  0  0  0  0  0  0  0  0  0  0  0
   11.2328  -20.7385    0.0000 O   0  0  0  0  0  0  0  0  0  0  0  0
    9.0858  -22.8059    0.0000 O   0  0  0  0  0  0  0  0  0  0  0  0
    6.9487  -20.7385    0.0000 O   0  0  0  0  0  0  0  0  0  0  0  0
   -5.1997  -21.9760    0.0000 N   0  0  0  0  0  0  0  0  0  0  0  0
   -4.4852  -21.5635    0.0000 C   0  0  2  0  0  0  0  0  0  0  0  0
   -3.7707  -21.9760    0.0000 C   0  0  0  0  0  0  0  0  0  0  0  0
   -3.0563  -21.5635    0.0000 N   0  0  0  0  0  0  0  0  0  0  0  0
   -2.3418  -21.9760    0.0000 C   0  0  2  0  0  0  0  0  0  0  0  0
   -1.6273  -21.5635    0.0000 C   0  0  0  0  0  0  0  0  0  0  0  0
   -0.9128  -21.9760    0.0000 N   0  0  0  0  0  0  0  0  0  0  0  0
   -0.1984  -21.5635    0.0000 C   0  0  2  0  0  0  0  0  0  0  0  0
    0.5161  -21.9760    0.0000 C   0  0  0  0  0  0  0  0  0  0  0  0
    1.2306  -21.5635    0.0000 N   0  0  0  0  0  0  0  0  0  0  0  0
    1.9450  -21.9760    0.0000 C   0  0  2  0  0  0  0  0  0  0  0  0
    2.6595  -21.5635    0.0000 C   0  0  0  0  0  0  0  0  0  0  0  0
    3.3740  -21.9760    0.0000 N   0  0  0  0  0  0  0  0  0  0  0  0
    4.0885  -21.5635    0.0000 C   0  0  2  0  0  0  0  0  0  0  0  0
    4.8029  -21.9760    0.0000 C   0  0  0  0  0  0  0  0  0  0  0  0
    4.7997  -22.8010    0.0000 O   0  0  0  0  0  0  0  0  0  0  0  0
    2.6627  -20.7335    0.0000 O   0  0  0  0  0  0  0  0  0  0  0  0
    0.5157  -22.8010    0.0000 O   0  0  0  0  0  0  0  0  0  0  0  0
   -1.6313  -20.7335    0.0000 O   0  0  0  0  0  0  0  0  0  0  0  0
   -3.7683  -22.8010    0.0000 O   0  0  0  0  0  0  0  0  0  0  0  0
   -4.4820  -20.7385    0.0000 C   0  0  0  0  0  0  0  0  0  0  0  0
   -3.7659  -20.3287    0.0000 C   0  0  0  0  0  0  0  0  0  0  0  0
   -3.7567  -19.5016    0.0000 C   0  0  0  0  0  0  0  0  0  0  0  0
   -0.1984  -20.7385    0.0000 C   0  0  0  0  0  0  0  0  0  0  0  0
    0.5161  -20.3260    0.0000 C   0  0  0  0  0  0  0  0  0  0  0  0
    1.9490  -22.8059    0.0000 C   0  0  0  0  0  0  0  0  0  0  0  0
    2.6655  -23.2150    0.0000 C   0  0  0  0  0  0  0  0  0  0  0  0
    2.6694  -24.0400    0.0000 C   0  0  0  0  0  0  0  0  0  0  0  0
    3.3859  -24.4491    0.0000 C   0  0  0  0  0  0  0  0  0  0  0  0
    4.0885  -20.7385    0.0000 C   0  0  0  0  0  0  0  0  0  0  0  0
    8.3753  -20.7385    0.0000 C   0  0  0  0  0  0  0  0  0  0  0  0
   10.5187  -22.8010    0.0000 C   0  0  0  0  0  0  0  0  0  0  0  0
   12.6641  -20.7385    0.0000 C   0  0  0  0  0  0  0  0  0  0  0  0
   14.8011  -22.8059    0.0000 C   0  0  0  0  0  0  0  0  0  0  0  0
   16.9529  -20.7335    0.0000 C   0  0  0  0  0  0  0  0  0  0  0  0
   17.6693  -20.3244    0.0000 C   0  0  0  0  0  0  0  0  0  0  0  0
   17.6733  -19.4994    0.0000 C   0  0  0  0  0  0  0  0  0  0  0  0
   18.3897  -19.0904    0.0000 C   0  0  0  0  0  0  0  0  0  0  0  0
   19.0963  -22.8059    0.0000 C   0  0  0  0  0  0  0  0  0  0  0  0
   19.8128  -23.2150    0.0000 C   0  0  0  0  0  0  0  0  0  0  0  0
   19.8167  -24.0400    0.0000 C   0  0  0  0  0  0  0  0  0  0  0  0
   20.5332  -24.4491    0.0000 C   0  0  0  0  0  0  0  0  0  0  0  0
   21.2389  -20.7385    0.0000 C   0  0  0  0  0  0  0  0  0  0  0  0
   20.5261  -20.3232    0.0000 C   0  0  0  0  0  0  0  0  0  0  0  0
   21.9550  -20.3287    0.0000 C   0  0  0  0  0  0  0  0  0  0  0  0
    3.3903  -25.2710    0.0000 N   0  0  0  0  0  0  0  0  0  0  0  0
   18.3894  -18.2635    0.0000 N   0  0  0  0  0  0  0  0  0  0  0  0
   20.5364  -25.2710    0.0000 N   0  0  0  0  0  0  0  0  0  0  0  0
    6.2351  -22.8010    0.0000 C   0  0  1  0  0  0  0  0  0  0  0  0
   -2.3378  -22.8059    0.0000 C   0  0  0  0  0  0  0  0  0  0  0  0
   -1.6214  -23.2150    0.0000 C   0  0  0  0  0  0  0  0  0  0  0  0
   -1.6174  -24.0400    0.0000 C   0  0  0  0  0  0  0  0  0  0  0  0
   -0.9010  -24.4491    0.0000 C   0  0  0  0  0  0  0  0  0  0  0  0
   -0.8965  -25.2710    0.0000 N   0  0  0  0  0  0  0  0  0  0  0  0
   11.2332  -23.2135    0.0000 O   0  0  0  0  0  0  0  0  0  0  0  0
    5.5222  -23.2162    0.0000 C   0  0  0  0  0  0  0  0  0  0  0  0
    6.9511  -23.2107    0.0000 C   0  0  0  0  0  0  0  0  0  0  0  0
    6.9603  -24.0379    0.0000 C   0  0  0  0  0  0  0  0  0  0  0  0
    9.0898  -20.3260    0.0000 C   0  0  0  0  0  0  0  0  0  0  0  0
   23.3824  -22.8010    0.0000 C   0  0  0  0  0  0  0  0  0  0  0  0
   24.0984  -23.2107    0.0000 C   0  0  0  0  0  0  0  0  0  0  0  0
   24.1076  -24.0379    0.0000 C   0  0  0  0  0  0  0  0  0  0  0  0
   -3.0546  -20.7466    0.0000 C   0  0  0  0  0  0  0  0  0  0  0  0
    0.5161  -19.5010    0.0000 C   0  0  0  0  0  0  0  0  0  0  0  0
    1.2306  -20.7385    0.0000 C   0  0  0  0  0  0  0  0  0  0  0  0
    4.8017  -20.3309    0.0000 O   0  0  0  0  0  0  0  0  0  0  0  0
    7.6608  -20.3260    0.0000 C   0  0  0  0  0  0  0  0  0  0  0  0
   13.3797  -20.3210    0.0000 C   0  0  0  0  0  0  0  0  0  0  0  0
   13.4623  -19.5001    0.0000 C   0  0  0  0  0  0  0  0  0  0  0  0
   14.1349  -20.6532    0.0000 C   0  0  0  0  0  0  0  0  0  0  0  0
   14.2685  -19.3250    0.0000 C   0  0  0  0  0  0  0  0  0  0  0  0
   14.6843  -20.0375    0.0000 N   0  0  0  0  0  0  0  0  0  0  0  0
   12.9076  -18.8896    0.0000 C   0  0  0  0  0  0  0  0  0  0  0  0
   13.1591  -18.1038    0.0000 C   0  0  0  0  0  0  0  0  0  0  0  0
   14.5199  -18.5393    0.0000 C   0  0  0  0  0  0  0  0  0  0  0  0
   13.9652  -17.9287    0.0000 C   0  0  0  0  0  0  0  0  0  0  0  0
   24.8098  -22.7929    0.0000 C   0  0  0  0  0  0  0  0  0  0  0  0
  2  1  1  6  0  0  0
  3  2  1  0  0  0  0
  4  3  1  0  0  0  0
  5  4  1  1  0  0  0
  6  5  1  0  0  0  0
  7  6  1  0  0  0  0
  8  7  1  6  0  0  0
  9  8  1  0  0  0  0
 10  9  1  0  0  0  0
 11 10  1  1  0  0  0
 12 11  1  0  0  0  0
 13 12  1  0  0  0  0
 14 13  1  6  0  0  0
 15 14  1  0  0  0  0
 16 15  1  0  0  0  0
 17 16  1  1  0  0  0
 18 17  1  0  0  0  0
 19 18  1  0  0  0  0
 20 19  1  6  0  0  0
 21 20  1  0  0  0  0
 22 21  1  0  0  0  0
 23 22  1  1  0  0  0
 24 23  1  0  0  0  0
 25 24  1  0  0  0  0
 26 25  1  6  0  0  0
 27 26  1  0  0  0  0
 28 27  1  0  0  0  0
 27 29  2  0  0  0  0
 24 30  2  0  0  0  0
 21 31  2  0  0  0  0
 18 32  2  0  0  0  0
 15 33  2  0  0  0  0
 12 34  2  0  0  0  0
  9 35  2  0  0  0  0
  6 36  2  0  0  0  0
  3 37  2  0  0  0  0
 39 38  1  1  0  0  0
 40 39  1  0  0  0  0
 41 40  1  0  0  0  0
 42 41  1  6  0  0  0
 43 42  1  0  0  0  0
 44 43  1  0  0  0  0
 45 44  1  1  0  0  0
 46 45  1  0  0  0  0
 47 46  1  0  0  0  0
 48 47  1  6  0  0  0
 49 48  1  0  0  0  0
 50 49  1  0  0  0  0
 51 50  1  1  0  0  0
 52 51  1  0  0  0  0
  1 52  1  0  0  0  0
 52 53  2  0  0  0  0
 49 54  2  0  0  0  0
 46 55  2  0  0  0  0
 43 56  2  0  0  0  0
 40 57  2  0  0  0  0
 39 58  1  0  0  0  0
 58 59  1  0  0  0  0
 59 60  1  0  0  0  0
 45 61  1  0  0  0  0
 61 62  1  0  0  0  0
 48 63  1  0  0  0  0
 63 64  1  0  0  0  0
 64 65  1  0  0  0  0
 65 66  1  0  0  0  0
 51 67  1  0  0  0  0
  5 68  1  0  0  0  0
  8 69  1  0  0  0  0
 11 70  1  0  0  0  0
 14 71  1  0  0  0  0
 17 72  1  0  0  0  0
 72 73  1  0  0  0  0
 73 74  1  0  0  0  0
 74 75  1  0  0  0  0
 20 76  1  0  0  0  0
 76 77  1  0  0  0  0
 77 78  1  0  0  0  0
 78 79  1  0  0  0  0
 23 80  1  0  0  0  0
 80 81  1  0  0  0  0
 80 82  1  0  0  0  0
 66 83  1  0  0  0  0
 75 84  1  0  0  0  0
 79 85  1  0  0  0  0
  2 86  1  0  0  0  0
 42 87  1  0  0  0  0
 87 88  1  0  0  0  0
 88 89  1  0  0  0  0
 89 90  1  0  0  0  0
 90 91  1  0  0  0  0
 69 92  1  0  0  0  0
 86 93  1  6  0  0  0
 86 94  1  0  0  0  0
 94 95  1  0  0  0  0
 68 96  1  0  0  0  0
 26 97  1  0  0  0  0
 97 98  1  0  0  0  0
 98 99  1  0  0  0  0
 59100  1  0  0  0  0
 62101  1  0  0  0  0
 62102  1  0  0  0  0
 67103  1  0  0  0  0
 68104  1  0  0  0  0
 70105  1  0  0  0  0
106105  1  0  0  0  0
107105  2  0  0  0  0
109107  1  0  0  0  0
109108  1  0  0  0  0
110106  1  0  0  0  0
108106  2  0  0  0  0
111110  2  0  0  0  0
112108  1  0  0  0  0
113111  1  0  0  0  0
113112  2  0  0  0  0
 98114  1  0  0  0  0
M  END
> <ID>
CHEBI:78511

> <NAME>
mastoparan-B

$$$$

Mrv0541 05091417252D          

107107  0  0  0  0            999 V2000
    5.3087   -6.7135    0.0000 N   0  0  0  0  0  0  0  0  0  0  0  0
    6.0231   -7.1260    0.0000 C   0  0  2  0  0  0  0  0  0  0  0  0
    6.7376   -6.7135    0.0000 C   0  0  0  0  0  0  0  0  0  0  0  0
    7.4521   -7.1260    0.0000 N   0  0  0  0  0  0  0  0  0  0  0  0
    8.1665   -6.7135    0.0000 C   0  0  2  0  0  0  0  0  0  0  0  0
    8.8810   -7.1260    0.0000 C   0  0  0  0  0  0  0  0  0  0  0  0
    9.5955   -6.7135    0.0000 N   0  0  0  0  0  0  0  0  0  0  0  0
   10.3100   -7.1260    0.0000 C   0  0  2  0  0  0  0  0  0  0  0  0
   11.0244   -6.7135    0.0000 C   0  0  0  0  0  0  0  0  0  0  0  0
   11.7389   -7.1260    0.0000 N   0  0  0  0  0  0  0  0  0  0  0  0
   12.4534   -6.7135    0.0000 C   0  0  2  0  0  0  0  0  0  0  0  0
   13.1678   -7.1260    0.0000 C   0  0  0  0  0  0  0  0  0  0  0  0
   13.8823   -6.7135    0.0000 N   0  0  0  0  0  0  0  0  0  0  0  0
   14.5968   -7.1260    0.0000 C   0  0  2  0  0  0  0  0  0  0  0  0
   15.3113   -6.7135    0.0000 C   0  0  0  0  0  0  0  0  0  0  0  0
   16.0257   -7.1260    0.0000 N   0  0  0  0  0  0  0  0  0  0  0  0
   16.7402   -6.7135    0.0000 C   0  0  2  0  0  0  0  0  0  0  0  0
   17.4547   -7.1260    0.0000 C   0  0  0  0  0  0  0  0  0  0  0  0
   18.1691   -6.7135    0.0000 N   0  0  0  0  0  0  0  0  0  0  0  0
   18.8836   -7.1260    0.0000 C   0  0  2  0  0  0  0  0  0  0  0  0
   19.5981   -6.7135    0.0000 C   0  0  0  0  0  0  0  0  0  0  0  0
   20.3126   -7.1260    0.0000 N   0  0  0  0  0  0  0  0  0  0  0  0
   21.0270   -6.7135    0.0000 C   0  0  2  0  0  0  0  0  0  0  0  0
   21.7415   -7.1260    0.0000 C   0  0  0  0  0  0  0  0  0  0  0  0
   22.4560   -6.7135    0.0000 N   0  0  0  0  0  0  0  0  0  0  0  0
   23.1704   -7.1260    0.0000 C   0  0  2  0  0  0  0  0  0  0  0  0
   23.8849   -6.7135    0.0000 C   0  0  0  0  0  0  0  0  0  0  0  0
   24.5994   -7.1260    0.0000 N   0  0  0  0  0  0  0  0  0  0  0  0
   23.8861   -5.8885    0.0000 O   0  0  0  0  0  0  0  0  0  0  0  0
   21.7391   -7.9559    0.0000 O   0  0  0  0  0  0  0  0  0  0  0  0
   19.6020   -5.8885    0.0000 O   0  0  0  0  0  0  0  0  0  0  0  0
   17.4550   -7.9559    0.0000 O   0  0  0  0  0  0  0  0  0  0  0  0
   15.3081   -5.8885    0.0000 O   0  0  0  0  0  0  0  0  0  0  0  0
   13.1710   -7.9559    0.0000 O   0  0  0  0  0  0  0  0  0  0  0  0
   11.0240   -5.8885    0.0000 O   0  0  0  0  0  0  0  0  0  0  0  0
    8.8770   -7.9559    0.0000 O   0  0  0  0  0  0  0  0  0  0  0  0
    6.7400   -5.8885    0.0000 O   0  0  0  0  0  0  0  0  0  0  0  0
   -5.4084   -7.1260    0.0000 N   0  0  0  0  0  0  0  0  0  0  0  0
   -4.6939   -6.7135    0.0000 C   0  0  2  0  0  0  0  0  0  0  0  0
   -3.9795   -7.1260    0.0000 C   0  0  0  0  0  0  0  0  0  0  0  0
   -3.2650   -6.7135    0.0000 N   0  0  0  0  0  0  0  0  0  0  0  0
   -2.5505   -7.1260    0.0000 C   0  0  2  0  0  0  0  0  0  0  0  0
   -1.8361   -6.7135    0.0000 C   0  0  0  0  0  0  0  0  0  0  0  0
   -1.1216   -7.1260    0.0000 N   0  0  0  0  0  0  0  0  0  0  0  0
   -0.4071   -6.7135    0.0000 C   0  0  2  0  0  0  0  0  0  0  0  0
    0.3074   -7.1260    0.0000 C   0  0  0  0  0  0  0  0  0  0  0  0
    1.0218   -6.7135    0.0000 N   0  0  0  0  0  0  0  0  0  0  0  0
    1.7363   -7.1260    0.0000 C   0  0  2  0  0  0  0  0  0  0  0  0
    2.4508   -6.7135    0.0000 C   0  0  0  0  0  0  0  0  0  0  0  0
    3.1652   -7.1260    0.0000 N   0  0  0  0  0  0  0  0  0  0  0  0
    3.8797   -6.7135    0.0000 C   0  0  2  0  0  0  0  0  0  0  0  0
    4.5942   -7.1260    0.0000 C   0  0  0  0  0  0  0  0  0  0  0  0
    4.5910   -7.9510    0.0000 O   0  0  0  0  0  0  0  0  0  0  0  0
    2.4539   -5.8835    0.0000 O   0  0  0  0  0  0  0  0  0  0  0  0
    0.3070   -7.9510    0.0000 O   0  0  0  0  0  0  0  0  0  0  0  0
   -1.8400   -5.8835    0.0000 O   0  0  0  0  0  0  0  0  0  0  0  0
   -3.9771   -7.9510    0.0000 O   0  0  0  0  0  0  0  0  0  0  0  0
   -4.6907   -5.8885    0.0000 C   0  0  2  0  0  0  0  0  0  0  0  0
   -3.9747   -5.4787    0.0000 C   0  0  0  0  0  0  0  0  0  0  0  0
   -3.9655   -4.6516    0.0000 C   0  0  0  0  0  0  0  0  0  0  0  0
   -0.4071   -5.8885    0.0000 C   0  0  0  0  0  0  0  0  0  0  0  0
    0.3074   -5.4760    0.0000 C   0  0  0  0  0  0  0  0  0  0  0  0
    1.7403   -7.9559    0.0000 C   0  0  0  0  0  0  0  0  0  0  0  0
    2.4567   -8.3650    0.0000 C   0  0  0  0  0  0  0  0  0  0  0  0
    2.4607   -9.1900    0.0000 C   0  0  0  0  0  0  0  0  0  0  0  0
    3.1771   -9.5991    0.0000 C   0  0  0  0  0  0  0  0  0  0  0  0
    3.8797   -5.8885    0.0000 C   0  0  0  0  0  0  0  0  0  0  0  0
    8.1665   -5.8885    0.0000 C   0  0  0  0  0  0  0  0  0  0  0  0
   10.3100   -7.9510    0.0000 C   0  0  0  0  0  0  0  0  0  0  0  0
   12.4553   -5.8885    0.0000 C   0  0  0  0  0  0  0  0  0  0  0  0
   14.5924   -7.9559    0.0000 C   0  0  0  0  0  0  0  0  0  0  0  0
   16.7442   -5.8835    0.0000 C   0  0  0  0  0  0  0  0  0  0  0  0
   17.4606   -5.4744    0.0000 C   0  0  0  0  0  0  0  0  0  0  0  0
   17.4646   -4.6495    0.0000 C   0  0  0  0  0  0  0  0  0  0  0  0
   18.1810   -4.2404    0.0000 C   0  0  0  0  0  0  0  0  0  0  0  0
   18.8876   -7.9559    0.0000 C   0  0  0  0  0  0  0  0  0  0  0  0
   19.6040   -8.3650    0.0000 C   0  0  0  0  0  0  0  0  0  0  0  0
   19.6080   -9.1900    0.0000 C   0  0  0  0  0  0  0  0  0  0  0  0
   20.3244   -9.5991    0.0000 C   0  0  0  0  0  0  0  0  0  0  0  0
   21.0302   -5.8885    0.0000 C   0  0  0  0  0  0  0  0  0  0  0  0
   21.7463   -5.4787    0.0000 C   0  0  0  0  0  0  0  0  0  0  0  0
    3.1816  -10.4210    0.0000 N   0  0  0  0  0  0  0  0  0  0  0  0
   18.1806   -3.4135    0.0000 N   0  0  0  0  0  0  0  0  0  0  0  0
   20.3276  -10.4210    0.0000 N   0  0  0  0  0  0  0  0  0  0  0  0
    6.0263   -7.9510    0.0000 C   0  0  1  0  0  0  0  0  0  0  0  0
    5.3135   -8.3662    0.0000 C   0  0  0  0  0  0  0  0  0  0  0  0
    6.7424   -8.3607    0.0000 C   0  0  0  0  0  0  0  0  0  0  0  0
    6.7516   -9.1879    0.0000 C   0  0  0  0  0  0  0  0  0  0  0  0
   23.1736   -7.9510    0.0000 C   0  0  0  0  0  0  0  0  0  0  0  0
   23.8897   -8.3607    0.0000 C   0  0  0  0  0  0  0  0  0  0  0  0
   23.8989   -9.1879    0.0000 C   0  0  0  0  0  0  0  0  0  0  0  0
    0.3074   -4.6510    0.0000 C   0  0  0  0  0  0  0  0  0  0  0  0
    1.0218   -5.8885    0.0000 C   0  0  0  0  0  0  0  0  0  0  0  0
   24.6010   -7.9429    0.0000 C   0  0  0  0  0  0  0  0  0  0  0  0
   -5.4064   -5.4809    0.0000 C   0  0  0  0  0  0  0  0  0  0  0  0
   -2.5537   -7.9560    0.0000 C   0  0  0  0  0  0  0  0  0  0  0  0
   -1.8380   -8.3635    0.0000 C   0  0  0  0  0  0  0  0  0  0  0  0
   -1.8380   -9.1885    0.0000 N   0  0  0  0  0  0  0  0  0  0  0  0
   -1.1248   -7.9489    0.0000 O   0  0  0  0  0  0  0  0  0  0  0  0
   13.1708   -5.4777    0.0000 C   0  0  0  0  0  0  0  0  0  0  0  0
   13.1728   -4.6527    0.0000 C   0  0  0  0  0  0  0  0  0  0  0  0
   13.8843   -5.8919    0.0000 C   0  0  0  0  0  0  0  0  0  0  0  0
   13.8883   -4.2419    0.0000 C   0  0  0  0  0  0  0  0  0  0  0  0
   14.5998   -5.4811    0.0000 C   0  0  0  0  0  0  0  0  0  0  0  0
   14.6018   -4.6561    0.0000 C   0  0  0  0  0  0  0  0  0  0  0  0
   22.4591   -5.8940    0.0000 C   0  0  0  0  0  0  0  0  0  0  0  0
   21.7495   -4.6538    0.0000 C   0  0  0  0  0  0  0  0  0  0  0  0
  2  1  1  6  0  0  0
  3  2  1  0  0  0  0
  4  3  1  0  0  0  0
  5  4  1  1  0  0  0
  6  5  1  0  0  0  0
  7  6  1  0  0  0  0
  8  7  1  6  0  0  0
  9  8  1  0  0  0  0
 10  9  1  0  0  0  0
 11 10  1  1  0  0  0
 12 11  1  0  0  0  0
 13 12  1  0  0  0  0
 14 13  1  6  0  0  0
 15 14  1  0  0  0  0
 16 15  1  0  0  0  0
 17 16  1  1  0  0  0
 18 17  1  0  0  0  0
 19 18  1  0  0  0  0
 20 19  1  6  0  0  0
 21 20  1  0  0  0  0
 22 21  1  0  0  0  0
 23 22  1  1  0  0  0
 24 23  1  0  0  0  0
 25 24  1  0  0  0  0
 26 25  1  6  0  0  0
 27 26  1  0  0  0  0
 28 27  1  0  0  0  0
 27 29  2  0  0  0  0
 24 30  2  0  0  0  0
 21 31  2  0  0  0  0
 18 32  2  0  0  0  0
 15 33  2  0  0  0  0
 12 34  2  0  0  0  0
  9 35  2  0  0  0  0
  6 36  2  0  0  0  0
  3 37  2  0  0  0  0
 39 38  1  1  0  0  0
 40 39  1  0  0  0  0
 41 40  1  0  0  0  0
 42 41  1  6  0  0  0
 43 42  1  0  0  0  0
 44 43  1  0  0  0  0
 45 44  1  1  0  0  0
 46 45  1  0  0  0  0
 47 46  1  0  0  0  0
 48 47  1  6  0  0  0
 49 48  1  0  0  0  0
 50 49  1  0  0  0  0
 51 50  1  1  0  0  0
 52 51  1  0  0  0  0
  1 52  1  0  0  0  0
 52 53  2  0  0  0  0
 49 54  2  0  0  0  0
 46 55  2  0  0  0  0
 43 56  2  0  0  0  0
 40 57  2  0  0  0  0
 39 58  1  0  0  0  0
 58 59  1  0  0  0  0
 59 60  1  0  0  0  0
 45 61  1  0  0  0  0
 61 62  1  0  0  0  0
 48 63  1  0  0  0  0
 63 64  1  0  0  0  0
 64 65  1  0  0  0  0
 65 66  1  0  0  0  0
 51 67  1  0  0  0  0
  5 68  1  0  0  0  0
  8 69  1  0  0  0  0
 11 70  1  0  0  0  0
 14 71  1  0  0  0  0
 17 72  1  0  0  0  0
 72 73  1  0  0  0  0
 73 74  1  0  0  0  0
 74 75  1  0  0  0  0
 20 76  1  0  0  0  0
 76 77  1  0  0  0  0
 77 78  1  0  0  0  0
 78 79  1  0  0  0  0
 23 80  1  0  0  0  0
 80 81  1  0  0  0  0
 66 82  1  0  0  0  0
 75 83  1  0  0  0  0
 79 84  1  0  0  0  0
  2 85  1  0  0  0  0
 85 86  1  6  0  0  0
 85 87  1  0  0  0  0
 87 88  1  0  0  0  0
 26 89  1  0  0  0  0
 89 90  1  0  0  0  0
 90 91  1  0  0  0  0
 62 92  1  0  0  0  0
 62 93  1  0  0  0  0
 90 94  1  0  0  0  0
 58 95  1  1  0  0  0
 42 96  1  0  0  0  0
 96 97  1  0  0  0  0
 97 98  1  0  0  0  0
 97 99  2  0  0  0  0
101100  1  0  0  0  0
102100  2  0  0  0  0
103101  2  0  0  0  0
104102  1  0  0  0  0
105103  1  0  0  0  0
105104  2  0  0  0  0
 70100  1  0  0  0  0
 81106  1  0  0  0  0
 81107  1  0  0  0  0
M  END
> <ID>
CHEBI:78514

> <NAME>
mastoparan-D

$$$$

Mrv0541 05091417422D          

104103  0  0  0  0            999 V2000
    5.3087   -6.7135    0.0000 N   0  0  0  0  0  0  0  0  0  0  0  0
    6.0231   -7.1260    0.0000 C   0  0  2  0  0  0  0  0  0  0  0  0
    6.7376   -6.7135    0.0000 C   0  0  0  0  0  0  0  0  0  0  0  0
    7.4521   -7.1260    0.0000 N   0  0  0  0  0  0  0  0  0  0  0  0
    8.1665   -6.7135    0.0000 C   0  0  2  0  0  0  0  0  0  0  0  0
    8.8810   -7.1260    0.0000 C   0  0  0  0  0  0  0  0  0  0  0  0
    9.5955   -6.7135    0.0000 N   0  0  0  0  0  0  0  0  0  0  0  0
   10.3100   -7.1260    0.0000 C   0  0  2  0  0  0  0  0  0  0  0  0
   11.0244   -6.7135    0.0000 C   0  0  0  0  0  0  0  0  0  0  0  0
   11.7389   -7.1260    0.0000 N   0  0  0  0  0  0  0  0  0  0  0  0
   12.4534   -6.7135    0.0000 C   0  0  2  0  0  0  0  0  0  0  0  0
   13.1678   -7.1260    0.0000 C   0  0  0  0  0  0  0  0  0  0  0  0
   13.8823   -6.7135    0.0000 N   0  0  0  0  0  0  0  0  0  0  0  0
   14.5968   -7.1260    0.0000 C   0  0  2  0  0  0  0  0  0  0  0  0
   15.3113   -6.7135    0.0000 C   0  0  0  0  0  0  0  0  0  0  0  0
   16.0257   -7.1260    0.0000 N   0  0  0  0  0  0  0  0  0  0  0  0
   16.7402   -6.7135    0.0000 C   0  0  2  0  0  0  0  0  0  0  0  0
   17.4547   -7.1260    0.0000 C   0  0  0  0  0  0  0  0  0  0  0  0
   18.1691   -6.7135    0.0000 N   0  0  0  0  0  0  0  0  0  0  0  0
   18.8836   -7.1260    0.0000 C   0  0  2  0  0  0  0  0  0  0  0  0
   19.5981   -6.7135    0.0000 C   0  0  0  0  0  0  0  0  0  0  0  0
   20.3126   -7.1260    0.0000 N   0  0  0  0  0  0  0  0  0  0  0  0
   21.0270   -6.7135    0.0000 C   0  0  2  0  0  0  0  0  0  0  0  0
   21.7415   -7.1260    0.0000 C   0  0  0  0  0  0  0  0  0  0  0  0
   22.4560   -6.7135    0.0000 N   0  0  0  0  0  0  0  0  0  0  0  0
   23.1704   -7.1260    0.0000 C   0  0  2  0  0  0  0  0  0  0  0  0
   23.8849   -6.7135    0.0000 C   0  0  0  0  0  0  0  0  0  0  0  0
   24.5994   -7.1260    0.0000 N   0  0  0  0  0  0  0  0  0  0  0  0
   23.8861   -5.8885    0.0000 O   0  0  0  0  0  0  0  0  0  0  0  0
   21.7391   -7.9559    0.0000 O   0  0  0  0  0  0  0  0  0  0  0  0
   19.6020   -5.8885    0.0000 O   0  0  0  0  0  0  0  0  0  0  0  0
   17.4550   -7.9559    0.0000 O   0  0  0  0  0  0  0  0  0  0  0  0
   15.3081   -5.8885    0.0000 O   0  0  0  0  0  0  0  0  0  0  0  0
   13.1710   -7.9559    0.0000 O   0  0  0  0  0  0  0  0  0  0  0  0
   11.0240   -5.8885    0.0000 O   0  0  0  0  0  0  0  0  0  0  0  0
    8.8770   -7.9559    0.0000 O   0  0  0  0  0  0  0  0  0  0  0  0
    6.7400   -5.8885    0.0000 O   0  0  0  0  0  0  0  0  0  0  0  0
   -5.4084   -7.1260    0.0000 N   0  0  0  0  0  0  0  0  0  0  0  0
   -4.6939   -6.7135    0.0000 C   0  0  2  0  0  0  0  0  0  0  0  0
   -3.9795   -7.1260    0.0000 C   0  0  0  0  0  0  0  0  0  0  0  0
   -3.2650   -6.7135    0.0000 N   0  0  0  0  0  0  0  0  0  0  0  0
   -2.5505   -7.1260    0.0000 C   0  0  2  0  0  0  0  0  0  0  0  0
   -1.8361   -6.7135    0.0000 C   0  0  0  0  0  0  0  0  0  0  0  0
   -1.1216   -7.1260    0.0000 N   0  0  0  0  0  0  0  0  0  0  0  0
   -0.4071   -6.7135    0.0000 C   0  0  2  0  0  0  0  0  0  0  0  0
    0.3074   -7.1260    0.0000 C   0  0  0  0  0  0  0  0  0  0  0  0
    1.0218   -6.7135    0.0000 N   0  0  0  0  0  0  0  0  0  0  0  0
    1.7363   -7.1260    0.0000 C   0  0  2  0  0  0  0  0  0  0  0  0
    2.4508   -6.7135    0.0000 C   0  0  0  0  0  0  0  0  0  0  0  0
    3.1652   -7.1260    0.0000 N   0  0  0  0  0  0  0  0  0  0  0  0
    3.8797   -6.7135    0.0000 C   0  0  2  0  0  0  0  0  0  0  0  0
    4.5942   -7.1260    0.0000 C   0  0  0  0  0  0  0  0  0  0  0  0
    4.5910   -7.9510    0.0000 O   0  0  0  0  0  0  0  0  0  0  0  0
    2.4539   -5.8835    0.0000 O   0  0  0  0  0  0  0  0  0  0  0  0
    0.3070   -7.9510    0.0000 O   0  0  0  0  0  0  0  0  0  0  0  0
   -1.8400   -5.8835    0.0000 O   0  0  0  0  0  0  0  0  0  0  0  0
   -3.9771   -7.9510    0.0000 O   0  0  0  0  0  0  0  0  0  0  0  0
   -4.6907   -5.8885    0.0000 C   0  0  2  0  0  0  0  0  0  0  0  0
   -3.9747   -5.4787    0.0000 C   0  0  0  0  0  0  0  0  0  0  0  0
   -3.9655   -4.6516    0.0000 C   0  0  0  0  0  0  0  0  0  0  0  0
   -0.4071   -5.8885    0.0000 C   0  0  0  0  0  0  0  0  0  0  0  0
    0.3074   -5.4760    0.0000 C   0  0  0  0  0  0  0  0  0  0  0  0
    1.7403   -7.9559    0.0000 C   0  0  0  0  0  0  0  0  0  0  0  0
    2.4567   -8.3650    0.0000 C   0  0  0  0  0  0  0  0  0  0  0  0
    2.4607   -9.1900    0.0000 C   0  0  0  0  0  0  0  0  0  0  0  0
    3.1771   -9.5991    0.0000 C   0  0  0  0  0  0  0  0  0  0  0  0
    3.8797   -5.8885    0.0000 C   0  0  0  0  0  0  0  0  0  0  0  0
    8.1665   -5.8885    0.0000 C   0  0  0  0  0  0  0  0  0  0  0  0
   10.3100   -7.9510    0.0000 C   0  0  0  0  0  0  0  0  0  0  0  0
   12.4553   -5.8885    0.0000 C   0  0  0  0  0  0  0  0  0  0  0  0
   14.5924   -7.9559    0.0000 C   0  0  0  0  0  0  0  0  0  0  0  0
   16.7442   -5.8835    0.0000 C   0  0  0  0  0  0  0  0  0  0  0  0
   17.4606   -5.4744    0.0000 C   0  0  0  0  0  0  0  0  0  0  0  0
   17.4646   -4.6495    0.0000 C   0  0  0  0  0  0  0  0  0  0  0  0
   18.1810   -4.2404    0.0000 C   0  0  0  0  0  0  0  0  0  0  0  0
   18.8876   -7.9559    0.0000 C   0  0  0  0  0  0  0  0  0  0  0  0
   19.6040   -8.3650    0.0000 C   0  0  0  0  0  0  0  0  0  0  0  0
   19.6080   -9.1900    0.0000 C   0  0  0  0  0  0  0  0  0  0  0  0
   20.3244   -9.5991    0.0000 C   0  0  0  0  0  0  0  0  0  0  0  0
   21.0302   -5.8885    0.0000 C   0  0  0  0  0  0  0  0  0  0  0  0
   21.7463   -5.4787    0.0000 C   0  0  0  0  0  0  0  0  0  0  0  0
    3.1816  -10.4210    0.0000 N   0  0  0  0  0  0  0  0  0  0  0  0
   18.1806   -3.4135    0.0000 N   0  0  0  0  0  0  0  0  0  0  0  0
   20.3276  -10.4210    0.0000 N   0  0  0  0  0  0  0  0  0  0  0  0
    6.0263   -7.9510    0.0000 C   0  0  1  0  0  0  0  0  0  0  0  0
    5.3135   -8.3662    0.0000 C   0  0  0  0  0  0  0  0  0  0  0  0
    6.7424   -8.3607    0.0000 C   0  0  0  0  0  0  0  0  0  0  0  0
    6.7516   -9.1879    0.0000 C   0  0  0  0  0  0  0  0  0  0  0  0
   23.1736   -7.9510    0.0000 C   0  0  0  0  0  0  0  0  0  0  0  0
   23.8897   -8.3607    0.0000 C   0  0  0  0  0  0  0  0  0  0  0  0
   23.8989   -9.1879    0.0000 C   0  0  0  0  0  0  0  0  0  0  0  0
    0.3074   -4.6510    0.0000 C   0  0  0  0  0  0  0  0  0  0  0  0
    1.0218   -5.8885    0.0000 C   0  0  0  0  0  0  0  0  0  0  0  0
   24.6010   -7.9429    0.0000 C   0  0  0  0  0  0  0  0  0  0  0  0
   -5.4064   -5.4809    0.0000 C   0  0  0  0  0  0  0  0  0  0  0  0
   -2.5537   -7.9560    0.0000 C   0  0  0  0  0  0  0  0  0  0  0  0
   -1.8380   -8.3635    0.0000 C   0  0  0  0  0  0  0  0  0  0  0  0
   -1.8380   -9.1885    0.0000 N   0  0  0  0  0  0  0  0  0  0  0  0
   -1.1248   -7.9489    0.0000 O   0  0  0  0  0  0  0  0  0  0  0  0
   13.1708   -5.4777    0.0000 C   0  0  0  0  0  0  0  0  0  0  0  0
   13.8843   -5.8919    0.0000 C   0  0  0  0  0  0  0  0  0  0  0  0
   22.4591   -5.8940    0.0000 C   0  0  0  0  0  0  0  0  0  0  0  0
   21.7495   -4.6538    0.0000 C   0  0  0  0  0  0  0  0  0  0  0  0
   13.1728   -4.6527    0.0000 C   0  0  0  0  0  0  0  0  0  0  0  0
  2  1  1  6  0  0  0
  3  2  1  0  0  0  0
  4  3  1  0  0  0  0
  5  4  1  1  0  0  0
  6  5  1  0  0  0  0
  7  6  1  0  0  0  0
  8  7  1  6  0  0  0
  9  8  1  0  0  0  0
 10  9  1  0  0  0  0
 11 10  1  1  0  0  0
 12 11  1  0  0  0  0
 13 12  1  0  0  0  0
 14 13  1  6  0  0  0
 15 14  1  0  0  0  0
 16 15  1  0  0  0  0
 17 16  1  1  0  0  0
 18 17  1  0  0  0  0
 19 18  1  0  0  0  0
 20 19  1  6  0  0  0
 21 20  1  0  0  0  0
 22 21  1  0  0  0  0
 23 22  1  1  0  0  0
 24 23  1  0  0  0  0
 25 24  1  0  0  0  0
 26 25  1  6  0  0  0
 27 26  1  0  0  0  0
 28 27  1  0  0  0  0
 27 29  2  0  0  0  0
 24 30  2  0  0  0  0
 21 31  2  0  0  0  0
 18 32  2  0  0  0  0
 15 33  2  0  0  0  0
 12 34  2  0  0  0  0
  9 35  2  0  0  0  0
  6 36  2  0  0  0  0
  3 37  2  0  0  0  0
 39 38  1  1  0  0  0
 40 39  1  0  0  0  0
 41 40  1  0  0  0  0
 42 41  1  6  0  0  0
 43 42  1  0  0  0  0
 44 43  1  0  0  0  0
 45 44  1  1  0  0  0
 46 45  1  0  0  0  0
 47 46  1  0  0  0  0
 48 47  1  6  0  0  0
 49 48  1  0  0  0  0
 50 49  1  0  0  0  0
 51 50  1  1  0  0  0
 52 51  1  0  0  0  0
  1 52  1  0  0  0  0
 52 53  2  0  0  0  0
 49 54  2  0  0  0  0
 46 55  2  0  0  0  0
 43 56  2  0  0  0  0
 40 57  2  0  0  0  0
 39 58  1  0  0  0  0
 58 59  1  0  0  0  0
 59 60  1  0  0  0  0
 45 61  1  0  0  0  0
 61 62  1  0  0  0  0
 48 63  1  0  0  0  0
 63 64  1  0  0  0  0
 64 65  1  0  0  0  0
 65 66  1  0  0  0  0
 51 67  1  0  0  0  0
  5 68  1  0  0  0  0
  8 69  1  0  0  0  0
 11 70  1  0  0  0  0
 14 71  1  0  0  0  0
 17 72  1  0  0  0  0
 72 73  1  0  0  0  0
 73 74  1  0  0  0  0
 74 75  1  0  0  0  0
 20 76  1  0  0  0  0
 76 77  1  0  0  0  0
 77 78  1  0  0  0  0
 78 79  1  0  0  0  0
 23 80  1  0  0  0  0
 80 81  1  0  0  0  0
 66 82  1  0  0  0  0
 75 83  1  0  0  0  0
 79 84  1  0  0  0  0
  2 85  1  0  0  0  0
 85 86  1  6  0  0  0
 85 87  1  0  0  0  0
 87 88  1  0  0  0  0
 26 89  1  0  0  0  0
 89 90  1  0  0  0  0
 90 91  1  0  0  0  0
 62 92  1  0  0  0  0
 62 93  1  0  0  0  0
 90 94  1  0  0  0  0
 58 95  1  1  0  0  0
 42 96  1  0  0  0  0
 96 97  1  0  0  0  0
 97 98  1  0  0  0  0
 97 99  2  0  0  0  0
101100  1  0  0  0  0
 70100  1  0  0  0  0
 81102  1  0  0  0  0
 81103  1  0  0  0  0
100104  1  0  0  0  0
M  END
> <ID>
CHEBI:78518

> <NAME>
mastoparan-M

$$$$

Mrv0541 05091418072D          

109110  0  0  0  0            999 V2000
    6.4840   -6.6580    0.0000 N   0  0  0  0  0  0  0  0  0  0  0  0
    7.1984   -7.0705    0.0000 C   0  0  2  0  0  0  0  0  0  0  0  0
    7.9128   -6.6580    0.0000 C   0  0  0  0  0  0  0  0  0  0  0  0
    8.6273   -7.0705    0.0000 N   0  0  0  0  0  0  0  0  0  0  0  0
    9.3417   -6.6580    0.0000 C   0  0  2  0  0  0  0  0  0  0  0  0
   10.0562   -7.0705    0.0000 C   0  0  0  0  0  0  0  0  0  0  0  0
   10.7707   -6.6580    0.0000 N   0  0  0  0  0  0  0  0  0  0  0  0
   11.4852   -7.0705    0.0000 C   0  0  2  0  0  0  0  0  0  0  0  0
   12.1996   -6.6580    0.0000 C   0  0  0  0  0  0  0  0  0  0  0  0
   12.9141   -7.0705    0.0000 N   0  0  0  0  0  0  0  0  0  0  0  0
   13.6286   -6.6580    0.0000 C   0  0  2  0  0  0  0  0  0  0  0  0
   14.3430   -7.0705    0.0000 C   0  0  0  0  0  0  0  0  0  0  0  0
   15.0575   -6.6580    0.0000 N   0  0  0  0  0  0  0  0  0  0  0  0
   15.7720   -7.0705    0.0000 C   0  0  2  0  0  0  0  0  0  0  0  0
   16.4865   -6.6580    0.0000 C   0  0  0  0  0  0  0  0  0  0  0  0
   17.2009   -7.0705    0.0000 N   0  0  0  0  0  0  0  0  0  0  0  0
   17.9154   -6.6580    0.0000 C   0  0  2  0  0  0  0  0  0  0  0  0
   18.6299   -7.0705    0.0000 C   0  0  0  0  0  0  0  0  0  0  0  0
   19.3443   -6.6580    0.0000 N   0  0  0  0  0  0  0  0  0  0  0  0
   20.0588   -7.0705    0.0000 C   0  0  2  0  0  0  0  0  0  0  0  0
   20.7733   -6.6580    0.0000 C   0  0  0  0  0  0  0  0  0  0  0  0
   21.4878   -7.0705    0.0000 N   0  0  0  0  0  0  0  0  0  0  0  0
   22.2022   -6.6580    0.0000 C   0  0  2  0  0  0  0  0  0  0  0  0
   22.9167   -7.0705    0.0000 C   0  0  0  0  0  0  0  0  0  0  0  0
   23.6311   -6.6580    0.0000 N   0  0  0  0  0  0  0  0  0  0  0  0
   24.3455   -7.0705    0.0000 C   0  0  2  0  0  0  0  0  0  0  0  0
   25.0600   -6.6580    0.0000 C   0  0  0  0  0  0  0  0  0  0  0  0
   25.7745   -7.0705    0.0000 N   0  0  0  0  0  0  0  0  0  0  0  0
   25.0612   -5.8330    0.0000 O   0  0  0  0  0  0  0  0  0  0  0  0
   22.9143   -7.9004    0.0000 O   0  0  0  0  0  0  0  0  0  0  0  0
   20.7772   -5.8330    0.0000 O   0  0  0  0  0  0  0  0  0  0  0  0
   18.6302   -7.9004    0.0000 O   0  0  0  0  0  0  0  0  0  0  0  0
   16.4833   -5.8330    0.0000 O   0  0  0  0  0  0  0  0  0  0  0  0
   14.3462   -7.9004    0.0000 O   0  0  0  0  0  0  0  0  0  0  0  0
   12.1992   -5.8330    0.0000 O   0  0  0  0  0  0  0  0  0  0  0  0
   10.0522   -7.9004    0.0000 O   0  0  0  0  0  0  0  0  0  0  0  0
    7.9152   -5.8330    0.0000 O   0  0  0  0  0  0  0  0  0  0  0  0
   -4.2331   -7.0705    0.0000 N   0  0  0  0  0  0  0  0  0  0  0  0
   -3.5186   -6.6580    0.0000 C   0  0  2  0  0  0  0  0  0  0  0  0
   -2.8042   -7.0705    0.0000 C   0  0  0  0  0  0  0  0  0  0  0  0
   -2.0897   -6.6580    0.0000 N   0  0  0  0  0  0  0  0  0  0  0  0
   -1.3752   -7.0705    0.0000 C   0  0  2  0  0  0  0  0  0  0  0  0
   -0.6608   -6.6580    0.0000 C   0  0  0  0  0  0  0  0  0  0  0  0
    0.0537   -7.0705    0.0000 N   0  0  0  0  0  0  0  0  0  0  0  0
    0.7682   -6.6580    0.0000 C   0  0  2  0  0  0  0  0  0  0  0  0
    1.4827   -7.0705    0.0000 C   0  0  0  0  0  0  0  0  0  0  0  0
    2.1971   -6.6580    0.0000 N   0  0  0  0  0  0  0  0  0  0  0  0
    2.9116   -7.0705    0.0000 C   0  0  2  0  0  0  0  0  0  0  0  0
    3.6261   -6.6580    0.0000 C   0  0  0  0  0  0  0  0  0  0  0  0
    4.3405   -7.0705    0.0000 N   0  0  0  0  0  0  0  0  0  0  0  0
    5.0550   -6.6580    0.0000 C   0  0  0  0  0  0  0  0  0  0  0  0
    5.7695   -7.0705    0.0000 C   0  0  0  0  0  0  0  0  0  0  0  0
    5.7663   -7.8955    0.0000 O   0  0  0  0  0  0  0  0  0  0  0  0
    3.6292   -5.8280    0.0000 O   0  0  0  0  0  0  0  0  0  0  0  0
    1.4823   -7.8955    0.0000 O   0  0  0  0  0  0  0  0  0  0  0  0
   -0.6647   -5.8280    0.0000 O   0  0  0  0  0  0  0  0  0  0  0  0
   -2.8018   -7.8955    0.0000 O   0  0  0  0  0  0  0  0  0  0  0  0
   -3.5154   -5.8330    0.0000 C   0  0  2  0  0  0  0  0  0  0  0  0
   -2.7994   -5.4232    0.0000 C   0  0  0  0  0  0  0  0  0  0  0  0
   -2.7902   -4.5961    0.0000 C   0  0  0  0  0  0  0  0  0  0  0  0
    0.7682   -5.8330    0.0000 C   0  0  0  0  0  0  0  0  0  0  0  0
    1.4827   -5.4205    0.0000 C   0  0  0  0  0  0  0  0  0  0  0  0
    2.9156   -7.9004    0.0000 C   0  0  0  0  0  0  0  0  0  0  0  0
    3.6320   -8.3095    0.0000 C   0  0  0  0  0  0  0  0  0  0  0  0
    3.6360   -9.1345    0.0000 C   0  0  0  0  0  0  0  0  0  0  0  0
    4.3524   -9.5436    0.0000 C   0  0  0  0  0  0  0  0  0  0  0  0
    9.3417   -5.8330    0.0000 C   0  0  0  0  0  0  0  0  0  0  0  0
   11.4852   -7.8955    0.0000 C   0  0  0  0  0  0  0  0  0  0  0  0
   13.6305   -5.8330    0.0000 C   0  0  0  0  0  0  0  0  0  0  0  0
   15.7676   -7.9004    0.0000 C   0  0  0  0  0  0  0  0  0  0  0  0
   17.9194   -5.8280    0.0000 C   0  0  0  0  0  0  0  0  0  0  0  0
   18.6358   -5.4189    0.0000 C   0  0  0  0  0  0  0  0  0  0  0  0
   18.6398   -4.5940    0.0000 C   0  0  0  0  0  0  0  0  0  0  0  0
   19.3562   -4.1849    0.0000 C   0  0  0  0  0  0  0  0  0  0  0  0
   20.0628   -7.9004    0.0000 C   0  0  0  0  0  0  0  0  0  0  0  0
   20.7792   -8.3095    0.0000 C   0  0  0  0  0  0  0  0  0  0  0  0
   20.7832   -9.1345    0.0000 C   0  0  0  0  0  0  0  0  0  0  0  0
   21.4996   -9.5436    0.0000 C   0  0  0  0  0  0  0  0  0  0  0  0
   22.2054   -5.8330    0.0000 C   0  0  0  0  0  0  0  0  0  0  0  0
   22.9214   -5.4232    0.0000 C   0  0  0  0  0  0  0  0  0  0  0  0
    4.3569  -10.3655    0.0000 N   0  0  0  0  0  0  0  0  0  0  0  0
   19.3558   -3.3580    0.0000 N   0  0  0  0  0  0  0  0  0  0  0  0
   21.5028  -10.3655    0.0000 N   0  0  0  0  0  0  0  0  0  0  0  0
    7.2016   -7.8955    0.0000 C   0  0  1  0  0  0  0  0  0  0  0  0
    6.4888   -8.3107    0.0000 C   0  0  0  0  0  0  0  0  0  0  0  0
    7.9176   -8.3052    0.0000 C   0  0  0  0  0  0  0  0  0  0  0  0
    7.9268   -9.1324    0.0000 C   0  0  0  0  0  0  0  0  0  0  0  0
   24.3487   -7.8955    0.0000 C   0  0  0  0  0  0  0  0  0  0  0  0
   25.0648   -8.3052    0.0000 C   0  0  0  0  0  0  0  0  0  0  0  0
   25.0740   -9.1324    0.0000 C   0  0  0  0  0  0  0  0  0  0  0  0
   25.7761   -7.8874    0.0000 C   0  0  0  0  0  0  0  0  0  0  0  0
   -4.2311   -5.4254    0.0000 C   0  0  0  0  0  0  0  0  0  0  0  0
   -1.3784   -7.9005    0.0000 C   0  0  0  0  0  0  0  0  0  0  0  0
   -0.6627   -8.3080    0.0000 C   0  0  0  0  0  0  0  0  0  0  0  0
   -0.6627   -9.1330    0.0000 N   0  0  0  0  0  0  0  0  0  0  0  0
    0.0505   -7.8934    0.0000 O   0  0  0  0  0  0  0  0  0  0  0  0
   14.3460   -5.4222    0.0000 C   0  0  0  0  0  0  0  0  0  0  0  0
   23.6342   -5.8385    0.0000 C   0  0  0  0  0  0  0  0  0  0  0  0
   22.9247   -4.5983    0.0000 C   0  0  0  0  0  0  0  0  0  0  0  0
   14.3480   -4.5972    0.0000 S   0  0  0  0  0  0  0  0  0  0  0  0
    1.5689   -4.6000    0.0000 C   0  0  0  0  0  0  0  0  0  0  0  0
    2.2364   -5.7561    0.0000 C   0  0  0  0  0  0  0  0  0  0  0  0
    2.3759   -4.4285    0.0000 C   0  0  0  0  0  0  0  0  0  0  0  0
    2.7885   -5.1429    0.0000 N   0  0  0  0  0  0  0  0  0  0  0  0
    1.0170   -3.9870    0.0000 C   0  0  0  0  0  0  0  0  0  0  0  0
    1.2720   -3.2024    0.0000 C   0  0  0  0  0  0  0  0  0  0  0  0
    2.6309   -3.6440    0.0000 C   0  0  0  0  0  0  0  0  0  0  0  0
    2.0789   -3.0309    0.0000 C   0  0  0  0  0  0  0  0  0  0  0  0
   15.0635   -4.1865    0.0000 C   0  0  0  0  0  0  0  0  0  0  0  0
  2  1  1  6  0  0  0
  3  2  1  0  0  0  0
  4  3  1  0  0  0  0
  5  4  1  1  0  0  0
  6  5  1  0  0  0  0
  7  6  1  0  0  0  0
  8  7  1  6  0  0  0
  9  8  1  0  0  0  0
 10  9  1  0  0  0  0
 11 10  1  1  0  0  0
 12 11  1  0  0  0  0
 13 12  1  0  0  0  0
 14 13  1  6  0  0  0
 15 14  1  0  0  0  0
 16 15  1  0  0  0  0
 17 16  1  1  0  0  0
 18 17  1  0  0  0  0
 19 18  1  0  0  0  0
 20 19  1  6  0  0  0
 21 20  1  0  0  0  0
 22 21  1  0  0  0  0
 23 22  1  1  0  0  0
 24 23  1  0  0  0  0
 25 24  1  0  0  0  0
 26 25  1  6  0  0  0
 27 26  1  0  0  0  0
 28 27  1  0  0  0  0
 27 29  2  0  0  0  0
 24 30  2  0  0  0  0
 21 31  2  0  0  0  0
 18 32  2  0  0  0  0
 15 33  2  0  0  0  0
 12 34  2  0  0  0  0
  9 35  2  0  0  0  0
  6 36  2  0  0  0  0
  3 37  2  0  0  0  0
 39 38  1  1  0  0  0
 40 39  1  0  0  0  0
 41 40  1  0  0  0  0
 42 41  1  6  0  0  0
 43 42  1  0  0  0  0
 44 43  1  0  0  0  0
 45 44  1  1  0  0  0
 46 45  1  0  0  0  0
 47 46  1  0  0  0  0
 48 47  1  6  0  0  0
 49 48  1  0  0  0  0
 50 49  1  0  0  0  0
 51 50  1  1  0  0  0
 52 51  1  0  0  0  0
  1 52  1  0  0  0  0
 52 53  2  0  0  0  0
 49 54  2  0  0  0  0
 46 55  2  0  0  0  0
 43 56  2  0  0  0  0
 40 57  2  0  0  0  0
 39 58  1  0  0  0  0
 58 59  1  0  0  0  0
 59 60  1  0  0  0  0
 45 61  1  0  0  0  0
 61 62  1  0  0  0  0
 48 63  1  0  0  0  0
 63 64  1  0  0  0  0
 64 65  1  0  0  0  0
 65 66  1  0  0  0  0
  5 67  1  0  0  0  0
  8 68  1  0  0  0  0
 11 69  1  0  0  0  0
 14 70  1  0  0  0  0
 17 71  1  0  0  0  0
 71 72  1  0  0  0  0
 72 73  1  0  0  0  0
 73 74  1  0  0  0  0
 20 75  1  0  0  0  0
 75 76  1  0  0  0  0
 76 77  1  0  0  0  0
 77 78  1  0  0  0  0
 23 79  1  0  0  0  0
 79 80  1  0  0  0  0
 66 81  1  0  0  0  0
 74 82  1  0  0  0  0
 78 83  1  0  0  0  0
  2 84  1  0  0  0  0
 84 85  1  6  0  0  0
 84 86  1  0  0  0  0
 86 87  1  0  0  0  0
 26 88  1  0  0  0  0
 88 89  1  0  0  0  0
 89 90  1  0  0  0  0
 89 91  1  0  0  0  0
 58 92  1  1  0  0  0
 42 93  1  0  0  0  0
 93 94  1  0  0  0  0
 94 95  1  0  0  0  0
 94 96  2  0  0  0  0
 69 97  1  0  0  0  0
 80 98  1  0  0  0  0
 80 99  1  0  0  0  0
 97100  1  0  0  0  0
101 62  1  0  0  0  0
102 62  2  0  0  0  0
104102  1  0  0  0  0
104103  1  0  0  0  0
105101  1  0  0  0  0
103101  2  0  0  0  0
106105  2  0  0  0  0
107103  1  0  0  0  0
108106  1  0  0  0  0
108107  2  0  0  0  0
100109  1  0  0  0  0
M  END
> <ID>
CHEBI:78519

> <NAME>
mastoparan-V

$$$$

Mrv0541 06031417092D          

 24 26  0  0  0  0            999 V2000
    4.2336    0.0104    0.0000 O   0  0  0  0  0  0  0  0  0  0  0  0
    4.0847   -2.6654    0.0000 O   0  0  0  0  0  0  0  0  0  0  0  0
    2.7815   -2.2420    0.0000 O   0  0  0  0  0  0  0  0  0  0  0  0
    6.6505   -1.5348    0.0000 O   0  0  0  0  0  0  0  0  0  0  0  0
    1.3701    0.1807    0.0000 O   0  0  0  0  0  0  0  0  0  0  0  0
    5.2289   -3.4864    0.0000 O   0  0  0  0  0  0  0  0  0  0  0  0
    3.4719    1.3693    0.0000 O   0  0  0  0  0  0  0  0  0  0  0  0
    2.1000    1.3851    0.0000 N   0  0  0  0  0  0  0  0  0  0  0  0
    4.2337   -1.2712    0.0000 C   0  0  1  0  0  0  0  0  0  0  0  0
    3.4803   -1.0265    0.0000 C   0  0  0  0  0  0  0  0  0  0  0  0
    4.6993   -0.6304    0.0000 C   0  0  0  0  0  0  0  0  0  0  0  0
    4.5576   -2.0300    0.0000 C   0  0  0  0  0  0  0  0  0  0  0  0
    3.4803   -0.2344    0.0000 C   0  0  0  0  0  0  0  0  0  0  0  0
    3.7681   -1.9120    0.0000 C   0  0  0  0  0  0  0  0  0  0  0  0
    2.7723   -1.4500    0.0000 C   0  0  0  0  0  0  0  0  0  0  0  0
    5.3775   -2.1226    0.0000 C   0  0  0  0  0  0  0  0  0  0  0  0
    5.5211   -0.7039    0.0000 C   0  0  0  0  0  0  0  0  0  0  0  0
    2.7723    0.1892    0.0000 C   0  0  0  0  0  0  0  0  0  0  0  0
    5.8624   -1.4550    0.0000 C   0  0  0  0  0  0  0  0  0  0  0  0
    2.0546   -1.0430    0.0000 C   0  0  0  0  0  0  0  0  0  0  0  0
    2.0546   -0.2179    0.0000 C   0  0  0  0  0  0  0  0  0  0  0  0
    5.6969   -2.8474    0.0000 C   0  0  0  0  0  0  0  0  0  0  0  0
    2.7814    0.9811    0.0000 C   0  0  0  0  0  0  0  0  0  0  0  0
    6.4843   -2.9332    0.0000 C   0  0  0  0  0  0  0  0  0  0  0  0
  1 11  1  0  0  0  0
  1 13  1  0  0  0  0
  2 12  2  0  0  0  0
  3 15  1  0  0  0  0
  4 19  1  0  0  0  0
  5 21  1  0  0  0  0
  6 22  2  0  0  0  0
  7 23  2  0  0  0  0
  8 23  1  0  0  0  0
  9 10  1  0  0  0  0
  9 11  1  0  0  0  0
  9 12  1  0  0  0  0
  9 14  1  6  0  0  0
 10 13  1  0  0  0  0
 10 15  2  0  0  0  0
 11 17  2  0  0  0  0
 12 16  1  0  0  0  0
 13 18  2  0  0  0  0
 15 20  1  0  0  0  0
 16 19  2  0  0  0  0
 16 22  1  0  0  0  0
 17 19  1  0  0  0  0
 18 21  1  0  0  0  0
 18 23  1  0  0  0  0
 20 21  2  0  0  0  0
 22 24  1  0  0  0  0
M  END
> <ID>
CHEBI:78696

> <NAME>
cercosporamide

$$$$

Ketcher 09291516542D 1   1.00000     0.00000     0

 45 48  0     1  0            999 V2000
   17.2640   -5.6297    0.0000 C   0  0  0  0  0  0  0  0  0  0  0  0
   16.4722   -6.0750    0.0000 O   0  0  0  0  0  0  0  0  0  0  0  0
   18.1547   -6.0750    0.0000 C   0  0  0  0  0  0  0  0  0  0  0  0
   18.8969   -5.6297    0.0000 O   0  0  0  0  0  0  0  0  0  0  0  0
   17.2640   -4.6400    0.0000 C   0  0  0  0  0  0  0  0  0  0  0  0
   15.6311   -5.6297    0.0000 C   0  0  0  0  0  0  0  0  0  0  0  0
   18.1547   -7.0646    0.0000 C   0  0  0  0  0  0  0  0  0  0  0  0
   19.7876   -7.0646    0.0000 C   0  0  0  0  0  0  0  0  0  0  0  0
   16.4722   -4.1452    0.0000 C   0  0  0  0  0  0  0  0  0  0  0  0
   17.9072   -3.8484    0.0000 C   0  0  0  0  0  0  0  0  0  0  0  0
   18.2536   -4.6400    0.0000 C   0  0  0  0  0  0  0  0  0  0  0  0
   15.6311   -4.6400    0.0000 C   0  0  0  0  0  0  0  0  0  0  0  0
   14.7898   -6.0750    0.0000 C   0  0  0  0  0  0  0  0  0  0  0  0
   15.6311   -6.7187    0.0000 O   0  0  0  0  0  0  0  0  0  0  0  0
   18.9463   -7.5100    0.0000 C   0  0  0  0  0  0  0  0  0  0  0  0
   17.3134   -7.5596    0.0000 O   0  0  0  0  0  0  0  0  0  0  0  0
   20.6289   -7.5100    0.0000 C   0  0  0  0  0  0  0  0  0  0  0  0
   14.7898   -4.1452    0.0000 C   0  0  0  0  0  0  0  0  0  0  0  0
   14.7898   -7.0646    0.0000 C   0  0  0  0  0  0  0  0  0  0  0  0
   18.9959   -8.4997    0.0000 C   0  0  0  0  0  0  0  0  0  0  0  0
   17.3136   -8.4997    0.0000 C   0  0  0  0  0  0  0  0  0  0  0  0
   21.4205   -7.0152    0.0000 C   0  0  0  0  0  0  0  0  0  0  0  0
   20.6289   -8.4502    0.0000 C   0  0  0  0  0  0  0  0  0  0  0  0
   15.5816   -7.5100    0.0000 O   0  0  0  0  0  0  0  0  0  0  0  0
   13.9486   -7.5100    0.0000 O   0  0  0  0  0  0  0  0  0  0  0  0
   16.4228   -8.9946    0.0000 C   0  0  0  0  0  0  0  0  0  0  0  0
   18.1051   -8.9946    0.0000 O   0  0  0  0  0  0  0  0  0  0  0  0
   22.2618   -7.5100    0.0000 C   0  0  0  0  0  0  0  0  0  0  0  0
   15.5816   -8.4997    0.0000 C   0  0  0  0  0  0  0  0  0  0  0  0
   23.1029   -7.0152    0.0000 C   0  0  0  0  0  0  0  0  0  0  0  0
   14.7898   -8.9946    0.0000 C   0  0  0  0  0  0  0  0  0  0  0  0
   13.9486   -8.4997    0.0000 C   0  0  0  0  0  0  0  0  0  0  0  0
   14.7898   -9.9347    0.0000 O   0  0  0  0  0  0  0  0  0  0  0  0
   14.6892   -8.0053    0.0000 H   0  0  0  0  0  0  0  0  0  0  0  0
   20.4693   -6.3347    0.0000 H   0  0  0  0  0  0  0  0  0  0  0  0
   23.9521   -7.4963    0.0000 C   0  0  0  0  0  0  0  0  0  0  0  0
   24.7933   -7.0015    0.0000 C   0  0  0  0  0  0  0  0  0  0  0  0
   23.9601   -8.4723    0.0000 C   0  0  0  0  0  0  0  0  0  0  0  0
   25.6425   -7.4826    0.0000 C   0  0  0  0  0  0  0  0  0  0  0  0
   24.8092   -8.9534    0.0000 C   0  0  0  0  0  0  0  0  0  0  0  0
   25.6504   -8.4586    0.0000 C   0  0  0  0  0  0  0  0  0  0  0  0
   23.0950   -6.0393    0.0000 O   0  0  0  0  0  0  0  0  0  0  0  0
   22.2459   -5.5581    0.0000 C   0  0  0  0  0  0  0  0  0  0  0  0
   24.7855   -6.0256    0.0000 Br  0  0  0  0  0  0  0  0  0  0  0  0
   24.8171   -9.9293    0.0000 O   0  0  0  0  0  0  0  0  0  0  0  0
  1  2  1  0     0  0
  1  3  1  0     0  0
  1  4  1  1     0  0
  1  5  1  0     0  0
  2  6  1  0     0  0
  3  7  1  0     0  0
  8  4  1  0     0  0
  5  9  1  0     0  0
  5 10  1  0     0  0
  5 11  1  0     0  0
  6 12  1  0     0  0
  6 13  1  0     0  0
  6 14  1  6     0  0
  7 15  1  0     0  0
  7 16  1  0     0  0
  8 17  1  0     0  0
 12 18  1  6     0  0
 13 19  1  0     0  0
 15 20  1  1     0  0
 16 21  1  0     0  0
 17 22  1  0     0  0
 17 23  1  6     0  0
 19 24  1  0     0  0
 19 25  2  0     0  0
 21 26  1  0     0  0
 21 27  2  0     0  0
 22 28  1  0     0  0
 29 24  1  0     0  0
 28 30  1  0     0  0
 29 31  1  0     0  0
 31 32  1  0     0  0
 31 33  1  6     0  0
  8 15  1  0     0  0
  9 12  1  0     0  0
 26 29  1  0     0  0
 29 34  1  1     0  0
  8 35  1  1     0  0
 37 36  1  0     0  0
 38 36  2  0     0  0
 39 37  2  0     0  0
 40 38  1  0     0  0
 41 39  1  0     0  0
 41 40  2  0     0  0
 30 36  1  0     0  0
 30 42  1  6     0  0
 42 43  1  0     0  0
 37 44  1  0     0  0
 40 45  1  0     0  0
M  END
> <ID>
CHEBI:80716

> <NAME>
aplysiatoxin

$$$$

Ketcher 09031815252D 1   1.00000     0.00000     0

 14 15  0     0  0            999 V2000
   17.6873  -15.6887    0.0000 N   0  0  0  0  0  0  0  0  0  0  0  0
   17.6873  -14.6894    0.0000 C   0  0  0  0  0  0  0  0  0  0  0  0
   18.5866  -14.1898    0.0000 N   0  0  0  0  0  0  0  0  0  0  0  0
   19.4360  -14.6894    0.0000 C   0  0  0  0  0  0  0  0  0  0  0  0
   19.4360  -15.6887    0.0000 C   0  0  0  0  0  0  0  0  0  0  0  0
   18.5866  -16.1884    0.0000 N   0  0  0  0  0  0  0  0  0  0  0  0
   20.2854  -14.1898    0.0000 C   0  0  0  0  0  0  0  0  0  0  0  0
   21.1848  -14.6894    0.0000 N   0  0  0  0  0  0  0  0  0  0  0  0
   21.1848  -15.6887    0.0000 C   0  0  0  0  0  0  0  0  0  0  0  0
   20.2854  -16.1884    0.0000 N   0  0  0  0  0  0  0  0  0  0  0  0
   18.5866  -17.1876    0.0000 C   0  0  0  0  0  0  0  0  0  0  0  0
   22.0341  -16.1384    0.0000 O   0  0  0  0  0  0  0  0  0  0  0  0
   22.0341  -14.1898    0.0000 C   0  0  0  0  0  0  0  0  0  0  0  0
   20.2854  -13.1905    0.0000 O   0  0  0  0  0  0  0  0  0  0  0  0
  1  2  2  0     0  0
  2  3  1  0     0  0
  3  4  2  0     0  0
  4  5  1  0     0  0
  5  6  1  0     0  0
  1  6  1  0     0  0
  4  7  1  0     0  0
  7  8  1  0     0  0
  8  9  1  0     0  0
  9 10  1  0     0  0
  5 10  2  0     0  0
  6 11  1  0     0  0
  9 12  2  0     0  0
  8 13  1  0     0  0
  7 14  2  0     0  0
M  END
> <ID>
CHEBI:80729

> <NAME>
toxoflavin

$$$$

Ketcher 11061714242D 1   1.00000     0.00000     0

  9  8  0     0  0            999 V2000
    7.0634   -5.6353    0.0000 C   0  0  0  0  0  0  0  0  0  0  0  0
    7.9145   -6.1359    0.0000 C   0  0  0  0  0  0  0  0  0  0  0  0
    8.8156   -5.6353    0.0000 C   0  0  0  0  0  0  0  0  0  0  0  0
    9.6667   -6.1359    0.0000 C   0  0  0  0  0  0  0  0  0  0  0  0
   10.5178   -5.6353    0.0000 C   0  0  0  0  0  0  0  0  0  0  0  0
   11.4190   -6.1359    0.0000 C   0  0  0  0  0  0  0  0  0  0  0  0
   12.2701   -5.6353    0.0000 C   0  0  0  0  0  0  0  0  0  0  0  0
   13.1211   -6.1359    0.0000 C   0  0  0  0  0  0  0  0  0  0  0  0
    8.8156   -4.6340    0.0000 O   0  0  0  0  0  0  0  0  0  0  0  0
  1  2  1  0     0  0
  2  3  1  0     0  0
  3  4  1  0     0  0
  4  5  1  0     0  0
  5  6  1  0     0  0
  6  7  1  0     0  0
  7  8  1  0     0  0
  3  9  2  0     0  0
M  END
> <ID>
CHEBI:80946

> <NAME>
3-octanone

$$$$

Ketcher 09281511312D 1   1.00000     0.00000     0

 31 34  0     1  0            999 V2000
   19.0584  -18.0835    0.0000 C   0  0  0  0  0  0  0  0  0  0  0  0
   19.0584  -19.0778    0.0000 N   0  0  0  0  0  0  0  0  0  0  0  0
   18.1972  -17.5863    0.0000 C   0  0  0  0  0  0  0  0  0  0  0  0
   18.1972  -19.5750    0.0000 C   0  0  0  0  0  0  0  0  0  0  0  0
   17.3362  -18.0835    0.0000 C   0  0  0  0  0  0  0  0  0  0  0  0
   17.3362  -19.0778    0.0000 C   0  0  0  0  0  0  0  0  0  0  0  0
   19.9195  -17.5864    0.0000 C   0  0  0  0  0  0  0  0  0  0  0  0
   20.7806  -18.0836    0.0000 C   0  0  0  0  0  0  0  0  0  0  0  0
   19.9194  -19.5749    0.0000 C   0  0  0  0  0  0  0  0  0  0  0  0
   20.7805  -19.0778    0.0000 N   0  0  0  0  0  0  0  0  0  0  0  0
   20.7798  -17.0961    0.0000 C   0  0  0  0  0  0  0  0  0  0  0  0
   21.6419  -16.6009    0.0000 C   0  0  0  0  0  0  0  0  0  0  0  0
   22.5018  -17.0998    0.0000 N   0  0  0  0  0  0  0  0  0  0  0  0
   21.6442  -15.6068    0.0000 C   0  0  0  0  0  0  0  0  0  0  0  0
   22.5063  -15.1117    0.0000 C   0  0  0  0  0  0  0  0  0  0  0  0
   23.3638  -16.6047    0.0000 C   0  0  0  0  0  0  0  0  0  0  0  0
   23.3660  -15.6106    0.0000 N   0  0  0  0  0  0  0  0  0  0  0  0
   22.5085  -14.1173    0.0000 O   0  0  0  0  0  0  0  0  0  0  0  0
   24.2238  -17.1038    0.0000 O   0  0  0  0  0  0  0  0  0  0  0  0
   19.9224  -16.5919    0.0000 O   0  0  0  0  0  0  0  0  0  0  0  0
   19.0598  -17.0951    0.0000 H   0  0  0  0  0  0  0  0  0  0  0  0
   18.1973  -18.5806    0.0000 H   0  0  0  0  0  0  0  0  0  0  0  0
   16.4722  -19.5750    0.0000 C   0  0  0  0  0  0  0  0  0  0  0  0
   18.5599  -20.6075    0.0000 C   0  0  0  0  0  0  0  0  0  0  0  0
   19.5543  -20.6083    0.0000 N   0  0  0  0  0  0  0  0  0  0  0  0
   16.4722  -17.5983    0.0000 O   0  0  0  0  0  0  0  0  0  0  0  0
   16.4722  -16.6040    0.0000 S   0  0  0  0  0  0  0  0  0  0  0  0
   17.3347  -16.1008    0.0000 O   0  0  0  0  0  0  0  0  0  0  0  0
   15.4779  -16.6062    0.0000 O   0  0  0  0  0  0  0  0  0  0  0  0
   15.9731  -15.7440    0.0000 O   0  0  0  0  0  0  0  0  0  0  0  0
   21.7432  -18.3410    0.0000 H   0  0  0  0  0  0  0  0  0  0  0  0
  3  1  1  0     0  0
  4  2  1  0     0  0
  5  3  1  0     0  0
  6  4  1  0     0  0
  6  5  1  0     0  0
  7  1  1  0     0  0
  2  1  1  0     0  0
  8  7  1  0     0  0
  9  2  1  0     0  0
 10  9  1  0     0  0
 11  8  1  0     0  0
 10  8  1  0     0  0
 12 11  1  0     0  0
 14 12  2  0     0  0
 13 12  1  0     0  0
 15 14  1  0     0  0
 16 13  1  0     0  0
 17 15  1  0     0  0
 17 16  1  0     0  0
 15 18  2  0     0  0
 16 19  2  0     0  0
 11 20  1  1     0  0
  1 21  1  1     0  0
  4 22  1  1     0  0
  6 23  1  1     0  0
 24  4  1  0     0  0
 25 24  1  0     0  0
 25  9  2  0     0  0
  5 26  1  1     0  0
 26 27  1  0     0  0
 27 28  1  0     0  0
 29 27  2  0     0  0
 30 27  2  0     0  0
  8 31  1  1     0  0
M  END
> <ID>
CHEBI:88046

> <NAME>
cylindrospermopsin

$$$$

Ketcher 09291515182D 1   1.00000     0.00000     0

 31 34  0     1  0            999 V2000
   10.1069   -5.1454    0.0000 C   0  0  0  0  0  0  0  0  0  0  0  0
   10.1069   -6.1397    0.0000 N   0  0  0  0  0  0  0  0  0  0  0  0
    9.2457   -4.6482    0.0000 C   0  0  0  0  0  0  0  0  0  0  0  0
    9.2457   -6.6369    0.0000 C   0  0  0  0  0  0  0  0  0  0  0  0
    8.3847   -5.1454    0.0000 C   0  0  0  0  0  0  0  0  0  0  0  0
    8.3847   -6.1397    0.0000 C   0  0  0  0  0  0  0  0  0  0  0  0
   10.9681   -4.6483    0.0000 C   0  0  0  0  0  0  0  0  0  0  0  0
   11.8291   -5.1455    0.0000 C   0  0  0  0  0  0  0  0  0  0  0  0
   10.9679   -6.6368    0.0000 C   0  0  0  0  0  0  0  0  0  0  0  0
   11.8290   -6.1397    0.0000 N   0  0  0  0  0  0  0  0  0  0  0  0
   11.8283   -4.1580    0.0000 C   0  0  0  0  0  0  0  0  0  0  0  0
   12.6904   -3.6628    0.0000 C   0  0  0  0  0  0  0  0  0  0  0  0
   13.5503   -4.1617    0.0000 N   0  0  0  0  0  0  0  0  0  0  0  0
   12.6927   -2.6687    0.0000 C   0  0  0  0  0  0  0  0  0  0  0  0
   13.5548   -2.1736    0.0000 C   0  0  0  0  0  0  0  0  0  0  0  0
   14.4123   -3.6666    0.0000 C   0  0  0  0  0  0  0  0  0  0  0  0
   14.4145   -2.6725    0.0000 N   0  0  0  0  0  0  0  0  0  0  0  0
   13.5570   -1.1792    0.0000 O   0  0  0  0  0  0  0  0  0  0  0  0
   15.2723   -4.1657    0.0000 O   0  0  0  0  0  0  0  0  0  0  0  0
   10.9709   -3.6538    0.0000 O   0  0  0  0  0  0  0  0  0  0  0  0
   10.1083   -4.1570    0.0000 H   0  0  0  0  0  0  0  0  0  0  0  0
    9.2459   -5.6425    0.0000 H   0  0  0  0  0  0  0  0  0  0  0  0
    7.5207   -6.6369    0.0000 C   0  0  0  0  0  0  0  0  0  0  0  0
    9.6084   -7.6694    0.0000 C   0  0  0  0  0  0  0  0  0  0  0  0
   10.6029   -7.6702    0.0000 N   0  0  0  0  0  0  0  0  0  0  0  0
    7.5207   -4.6602    0.0000 O   0  0  0  0  0  0  0  0  0  0  0  0
    7.5207   -3.6659    0.0000 S   0  0  0  0  0  0  0  0  0  0  0  0
    8.3832   -3.1627    0.0000 O   0  0  0  0  0  0  0  0  0  0  0  0
    6.5265   -3.6681    0.0000 O   0  0  0  0  0  0  0  0  0  0  0  0
    7.0216   -2.8059    0.0000 O   0  0  0  0  0  0  0  0  0  0  0  0
   12.7917   -5.4029    0.0000 H   0  0  0  0  0  0  0  0  0  0  0  0
  3  1  1  0     0  0
  4  2  1  0     0  0
  5  3  1  0     0  0
  6  4  1  0     0  0
  6  5  1  0     0  0
  7  1  1  0     0  0
  2  1  1  0     0  0
  8  7  1  0     0  0
  9  2  1  0     0  0
 10  9  1  0     0  0
 11  8  1  0     0  0
 10  8  1  0     0  0
 12 11  1  0     0  0
 14 12  2  0     0  0
 13 12  1  0     0  0
 15 14  1  0     0  0
 16 13  1  0     0  0
 17 15  1  0     0  0
 17 16  1  0     0  0
 15 18  2  0     0  0
 16 19  2  0     0  0
 11 20  1  6     0  0
  1 21  1  1     0  0
  4 22  1  1     0  0
  6 23  1  1     0  0
 24  4  1  0     0  0
 25 24  1  0     0  0
 25  9  2  0     0  0
  5 26  1  1     0  0
 26 27  1  0     0  0
 27 28  1  0     0  0
 29 27  2  0     0  0
 30 27  2  0     0  0
  8 31  1  1     0  0
M  END
> <ID>
CHEBI:88049

> <NAME>
7-epi-cylindrospermopsin

$$$$

Ketcher 11291616282D 1   1.00000     0.00000     0

 47 53  0     1  0            999 V2000
   17.7686   -4.2865    0.0000 C   0  0  0  0  0  0  0  0  0  0  0  0
   17.7560   -3.3865    0.0000 C   0  0  0  0  0  0  0  0  0  0  0  0
   18.4141   -3.7644    0.0000 C   0  0  0  0  0  0  0  0  0  0  0  0
   17.7686   -5.1869    0.0000 C   0  0  0  0  0  0  0  0  0  0  0  0
   17.0003   -3.8323    0.0000 C   0  0  0  0  0  0  0  0  0  0  0  0
   16.6648   -4.7918    0.0000 N   0  0  0  0  0  0  0  0  0  0  0  0
   19.2462   -3.9511    0.0000 C   0  0  0  0  0  0  0  0  0  0  0  0
   18.3419   -2.9193    0.0000 C   0  0  0  0  0  0  0  0  0  0  0  0
   17.0003   -5.6325    0.0000 C   0  0  0  0  0  0  0  0  0  0  0  0
   18.4439   -5.7217    0.0000 C   0  0  0  0  0  0  0  0  0  0  0  0
   16.2104   -4.2865    0.0000 C   0  0  0  0  0  0  0  0  0  0  0  0
   17.0003   -2.9363    0.0000 O   0  0  0  0  0  0  0  0  0  0  0  0
   19.6538   -4.6984    0.0000 C   0  0  0  0  0  0  0  0  0  0  0  0
   16.6264   -6.4096    0.0000 C   0  0  0  0  0  0  0  0  0  0  0  0
   19.6837   -3.2251    0.0000 C   0  0  0  0  0  0  0  0  0  0  0  0
   19.1232   -2.5839    0.0000 C   0  0  0  0  0  0  0  0  0  0  0  0
   16.2104   -5.1869    0.0000 C   0  0  0  0  0  0  0  0  0  0  0  0
   17.3484   -6.4096    0.0000 C   0  0  0  0  0  0  0  0  0  0  0  0
   20.7028   -4.2101    0.0000 C   0  0  0  0  0  0  0  0  0  0  0  0
   20.4266   -5.1443    0.0000 O   0  0  0  0  0  0  0  0  0  0  0  0
   21.0405   -2.6555    0.0000 O   0  0  0  0  0  0  0  0  0  0  0  0
   19.9681   -2.5839    0.0000 C   0  0  0  0  0  0  0  0  0  0  0  0
   20.5031   -1.8578    0.0000 O   0  0  0  0  0  0  0  0  0  0  0  0
   20.1550   -1.0340    0.0000 C   0  0  0  0  0  0  0  0  0  0  0  0
   18.9491   -3.2208    0.0000 H   0  0  0  0  0  0  0  0  0  0  0  0
   17.8069   -5.9467    0.0000 H   0  0  0  0  0  0  0  0  0  0  0  0
   20.0913   -3.9469    0.0000 H   0  0  0  0  0  0  0  0  0  0  0  0
   19.3143   -1.7518    0.0000 O   0  0  0  0  0  0  0  0  0  0  0  0
   19.2929   -5.5137    0.0000 C   0  0  0  0  0  0  0  0  0  0  0  0
   19.7371   -6.2830    0.0000 H   0  0  0  0  0  0  0  0  0  0  0  0
   16.8254   -7.1326    0.0000 O   0  0  0  0  0  0  0  0  0  0  0  0
   17.1900   -7.9469    0.0000 C   0  0  0  0  0  0  0  0  0  0  0  0
   18.2537   -6.5934    0.0000 O   0  0  0  0  0  0  0  0  0  0  0  0
   18.9135   -7.1940    0.0000 C   0  0  0  0  0  0  0  0  0  0  0  0
   21.4648   -4.7188    0.0000 O   0  0  0  0  0  0  0  0  0  0  0  0
   15.4399   -5.6367    0.0000 O   0  0  0  0  0  0  0  0  0  0  0  0
   16.2276   -2.4902    0.0000 C   0  0  0  0  0  0  0  0  0  0  0  0
   21.8987   -3.1510    0.0000 C   0  0  0  0  0  0  0  0  0  0  0  0
   22.7570   -2.6555    0.0000 C   0  0  0  0  0  0  0  0  0  0  0  0
   21.8987   -4.1420    0.0000 O   0  0  0  0  0  0  0  0  0  0  0  0
   22.7570   -1.6644    0.0000 C   0  0  0  0  0  0  0  0  0  0  0  0
   23.6153   -1.1689    0.0000 C   0  0  0  0  0  0  0  0  0  0  0  0
   24.4736   -1.6644    0.0000 C   0  0  0  0  0  0  0  0  0  0  0  0
   24.4736   -2.6555    0.0000 C   0  0  0  0  0  0  0  0  0  0  0  0
   23.6153   -3.1510    0.0000 C   0  0  0  0  0  0  0  0  0  0  0  0
   15.7988   -4.2918    0.0000 C   0  0  0  0  0  0  0  0  0  0  0  0
   14.9328   -4.7918    0.0000 C   0  0  0  0  0  0  0  0  0  0  0  0
  1  2  1  6     0  0
  1  4  1  0     0  0
 29  2  1  0     0  0
  2  6  1  0     0  0
  3  7  1  0     0  0
  3  8  1  0     0  0
  4  9  1  0     0  0
  4 10  1  0     0  0
  5 11  1  0     0  0
  5 12  1  6     0  0
 29 13  1  0     0  0
  6 14  1  0     0  0
  7 15  1  0     0  0
  8 16  1  0     0  0
  9 17  1  0     0  0
  9 18  1  1     0  0
 13 19  1  0     0  0
 13 20  1  1     0  0
 15 21  1  6     0  0
 16 22  1  0     0  0
 22 23  1  1     0  0
 23 24  1  0     0  0
 29 10  1  0     0  0
  7 13  1  0     0  0
  9 14  1  6     0  0
 11 17  1  0     0  0
 15 16  1  0     0  0
 19 22  1  0     0  0
  3 25  1  1     0  0
  4 26  1  1     0  0
  7 27  1  1     0  0
 16 28  1  1     0  0
 29 30  1  6     0  0
  1  3  1  0     0  0
  5  1  1  0     0  0
 18 31  1  0     0  0
 31 32  1  0     0  0
 10 33  1  6     0  0
 33 34  1  0     0  0
 19 35  1  6     0  0
 17 36  1  6     0  0
 12 37  1  0     0  0
 21 38  1  0     0  0
 38 39  1  0     0  0
 38 40  2  0     0  0
 39 41  1  0     0  0
 41 42  2  0     0  0
 42 43  1  0     0  0
 43 44  2  0     0  0
 44 45  1  0     0  0
 45 39  2  0     0  0
  6 46  1  0     0  0
 46 47  1  0     0  0
M  END
> <ID>
CHEBI:132633

> <NAME>
benzoylaconine

$$$$

Ketcher 02281712572D 1   1.00000     0.00000     0

  9  9  0     1  0            999 V2000
    6.5188  -23.2477    0.0000 C   0  0  0  0  0  0  0  0  0  0  0  0
    7.3863  -22.7556    0.0000 C   0  0  0  0  0  0  0  0  0  0  0  0
    8.2539  -23.2561    0.0000 O   0  0  0  0  0  0  0  0  0  0  0  0
    7.3905  -21.7546    0.0000 O   0  0  0  0  0  0  0  0  0  0  0  0
    5.6513  -22.7555    0.0000 C   0  0  0  0  0  0  0  0  0  0  0  0
    4.6544  -22.7555    0.0000 C   0  0  0  0  0  0  0  0  0  0  0  0
    5.1591  -21.8880    0.0000 C   0  0  0  0  0  0  0  0  0  0  0  0
    3.7910  -23.2644    0.0000 C   0  0  0  0  0  0  0  0  0  0  0  0
    6.5132  -24.2501    0.0000 N   0  0  0  0  0  0  0  0  0  0  0  0
  1  2  1  0     0  0
  2  3  1  0     0  0
  2  4  2  0     0  0
  5  6  1  0     0  0
  5  1  1  0     0  0
  5  7  1  0     0  0
  6  8  2  0     0  0
  6  7  1  0     0  0
  1  9  1  1     0  0
M  END
> <ID>
CHEBI:136301

> <NAME>
L-alpha-(methylidenecyclopropyl)glycine

$$$$

Ketcher 04181814492D 1   1.00000     0.00000     0

 16 18  0     0  0            999 V2000
   16.8418   -3.4370    0.0000 S   0  0  0  0  0  0  0  0  0  0  0  0
   13.5022   -7.0798    0.0000 O   0  0  0  0  0  0  0  0  0  0  0  0
   17.1235   -6.8803    0.0000 N   0  0  0  0  0  0  0  0  0  0  0  0
   18.4132   -3.9507    0.0000 N   0  0  0  0  0  0  0  0  0  0  0  0
   16.1567   -5.5472    0.0000 C   0  0  0  0  0  0  0  0  0  0  0  0
   16.1567   -6.5690    0.0000 C   0  0  0  0  0  0  0  0  0  0  0  0
   17.1235   -5.2358    0.0000 C   0  0  0  0  0  0  0  0  0  0  0  0
   17.7198   -6.0580    0.0000 C   0  0  0  0  0  0  0  0  0  0  0  0
   15.2719   -5.0363    0.0000 C   0  0  0  0  0  0  0  0  0  0  0  0
   15.2719   -7.0798    0.0000 C   0  0  0  0  0  0  0  0  0  0  0  0
   14.3871   -6.5690    0.0000 C   0  0  0  0  0  0  0  0  0  0  0  0
   17.4409   -4.2647    0.0000 C   0  0  0  0  0  0  0  0  0  0  0  0
   14.3871   -5.5472    0.0000 C   0  0  0  0  0  0  0  0  0  0  0  0
   17.4438   -2.6115    0.0000 C   0  0  0  0  0  0  0  0  0  0  0  0
   18.4150   -2.9290    0.0000 C   0  0  0  0  0  0  0  0  0  0  0  0
   12.6174   -6.5690    0.0000 C   0  0  0  0  0  0  0  0  0  0  0  0
  1 12  1  0     0  0
  1 14  1  0     0  0
  2 11  1  0     0  0
  2 16  1  0     0  0
  3  6  1  0     0  0
  3  8  1  0     0  0
  4 12  2  0     0  0
  4 15  1  0     0  0
  5  6  2  0     0  0
  5  7  1  0     0  0
  5  9  1  0     0  0
  6 10  1  0     0  0
  7  8  2  0     0  0
  7 12  1  0     0  0
  9 13  2  0     0  0
 10 11  2  0     0  0
 11 13  1  0     0  0
 14 15  2  0     0  0
M  END
> <ID>
CHEBI:136941

> <NAME>
6-methoxycamalexin

$$$$

Ketcher 08142015262D 1   1.00000     0.00000     0

 28 33  0     0  0            999 V2000
   15.7329  -12.1729    0.0000 C   0  0  0  0  0  0  0  0  0  0  0  0
   16.0420  -13.1240    0.0000 C   0  0  0  0  0  0  0  0  0  0  0  0
   17.0420  -13.1240    0.0000 C   0  0  0  0  0  0  0  0  0  0  0  0
   17.3510  -12.1729    0.0000 C   0  0  0  0  0  0  0  0  0  0  0  0
   16.5420  -11.5851    0.0000 N   0  0  0  0  0  0  0  0  0  0  0  0
   17.5420  -13.9900    0.0000 C   0  0  0  0  0  0  0  0  0  0  0  0
   17.0419  -14.8560    0.0000 C   0  0  0  0  0  0  0  0  0  0  0  0
   16.0419  -14.8560    0.0000 C   0  0  0  0  0  0  0  0  0  0  0  0
   15.5419  -13.9900    0.0000 C   0  0  0  0  0  0  0  0  0  0  0  0
   14.5638  -14.1979    0.0000 C   0  0  0  0  0  0  0  0  0  0  0  0
   13.7547  -13.6102    0.0000 C   0  0  0  0  0  0  0  0  0  0  0  0
   12.8412  -14.0169    0.0000 C   0  0  0  0  0  0  0  0  0  0  0  0
   12.7367  -15.0114    0.0000 C   0  0  0  0  0  0  0  0  0  0  0  0
   13.5457  -15.5992    0.0000 C   0  0  0  0  0  0  0  0  0  0  0  0
   14.4593  -15.1924    0.0000 C   0  0  0  0  0  0  0  0  0  0  0  0
   15.3728  -15.5992    0.0000 N   0  0  0  0  0  0  0  0  0  0  0  0
   17.7111  -15.5992    0.0000 N   0  0  0  0  0  0  0  0  0  0  0  0
   18.6246  -15.1925    0.0000 C   0  0  0  0  0  0  0  0  0  0  0  0
   19.5381  -15.5992    0.0000 C   0  0  0  0  0  0  0  0  0  0  0  0
   20.3472  -15.0114    0.0000 C   0  0  0  0  0  0  0  0  0  0  0  0
   20.2426  -14.0169    0.0000 C   0  0  0  0  0  0  0  0  0  0  0  0
   19.3291  -13.6102    0.0000 C   0  0  0  0  0  0  0  0  0  0  0  0
   18.5201  -14.1979    0.0000 C   0  0  0  0  0  0  0  0  0  0  0  0
   11.8232  -15.4181    0.0000 O   0  0  0  0  0  0  0  0  0  0  0  0
   18.3020  -11.8639    0.0000 C   0  0  0  0  0  0  0  0  0  0  0  0
   19.0451  -12.5331    0.0000 O   0  0  0  0  0  0  0  0  0  0  0  0
   18.5099  -10.8858    0.0000 O   0  0  0  0  0  0  0  0  0  0  0  0
   19.9963  -12.2241    0.0000 C   0  0  0  0  0  0  0  0  0  0  0  0
  1  2  2  0     0  0
  2  3  1  0     0  0
  3  4  2  0     0  0
  4  5  1  0     0  0
  5  1  1  0     0  0
  3  6  1  0     0  0
  6  7  2  0     0  0
  7  8  1  0     0  0
  8  9  2  0     0  0
  9  2  1  0     0  0
  9 10  1  0     0  0
 10 11  2  0     0  0
 11 12  1  0     0  0
 12 13  2  0     0  0
 13 14  1  0     0  0
 14 15  2  0     0  0
 15 10  1  0     0  0
 15 16  1  0     0  0
 16  8  1  0     0  0
  7 17  1  0     0  0
 17 18  1  0     0  0
 18 19  2  0     0  0
 19 20  1  0     0  0
 20 21  2  0     0  0
 21 22  1  0     0  0
 22 23  2  0     0  0
 23 18  1  0     0  0
 23  6  1  0     0  0
 13 24  1  0     0  0
  4 25  1  0     0  0
 25 26  1  0     0  0
 25 27  2  0     0  0
 26 28  1  0     0  0
M  END
> <ID>
CHEBI:156313

> <NAME>
erdasporine A

$$$$

Ketcher 08182015272D 1   1.00000     0.00000     0

 27 32  0     0  0            999 V2000
   15.1401  -22.1913    0.0000 C   0  0  0  0  0  0  0  0  0  0  0  0
   14.8311  -23.1425    0.0000 C   0  0  0  0  0  0  0  0  0  0  0  0
   15.3311  -24.0084    0.0000 C   0  0  0  0  0  0  0  0  0  0  0  0
   16.3092  -24.2163    0.0000 C   0  0  0  0  0  0  0  0  0  0  0  0
   17.1182  -23.6285    0.0000 C   0  0  0  0  0  0  0  0  0  0  0  0
   18.0317  -24.0354    0.0000 C   0  0  0  0  0  0  0  0  0  0  0  0
   18.1362  -25.0299    0.0000 C   0  0  0  0  0  0  0  0  0  0  0  0
   17.3273  -25.6177    0.0000 C   0  0  0  0  0  0  0  0  0  0  0  0
   16.4138  -25.2109    0.0000 C   0  0  0  0  0  0  0  0  0  0  0  0
   15.5001  -25.6177    0.0000 N   0  0  0  0  0  0  0  0  0  0  0  0
   14.8311  -24.8746    0.0000 C   0  0  0  0  0  0  0  0  0  0  0  0
   13.8311  -24.8746    0.0000 C   0  0  0  0  0  0  0  0  0  0  0  0
   13.3311  -24.0084    0.0000 C   0  0  0  0  0  0  0  0  0  0  0  0
   13.8311  -23.1425    0.0000 C   0  0  0  0  0  0  0  0  0  0  0  0
   13.5221  -22.1913    0.0000 C   0  0  0  0  0  0  0  0  0  0  0  0
   14.3310  -21.6037    0.0000 N   0  0  0  0  0  0  0  0  0  0  0  0
   12.3530  -24.2163    0.0000 C   0  0  0  0  0  0  0  0  0  0  0  0
   11.5439  -23.6285    0.0000 C   0  0  0  0  0  0  0  0  0  0  0  0
   10.6304  -24.0354    0.0000 C   0  0  0  0  0  0  0  0  0  0  0  0
   10.5259  -25.0299    0.0000 C   0  0  0  0  0  0  0  0  0  0  0  0
   11.3349  -25.6177    0.0000 C   0  0  0  0  0  0  0  0  0  0  0  0
   12.2484  -25.2109    0.0000 C   0  0  0  0  0  0  0  0  0  0  0  0
   13.1620  -25.6177    0.0000 N   0  0  0  0  0  0  0  0  0  0  0  0
   16.0911  -21.8824    0.0000 C   0  0  0  0  0  0  0  0  0  0  0  0
   16.2990  -20.9042    0.0000 O   0  0  0  0  0  0  0  0  0  0  0  0
   16.8343  -22.5514    0.0000 O   0  0  0  0  0  0  0  0  0  0  0  0
   17.7853  -22.2423    0.0000 C   0  0  0  0  0  0  0  0  0  0  0  0
  1  2  2  0     0  0
  2  3  1  0     0  0
  3  4  1  0     0  0
  4  5  2  0     0  0
  5  6  1  0     0  0
  6  7  2  0     0  0
  7  8  1  0     0  0
  8  9  2  0     0  0
  9  4  1  0     0  0
  9 10  1  0     0  0
 10 11  1  0     0  0
 11  3  2  0     0  0
 11 12  1  0     0  0
 12 13  2  0     0  0
 13 14  1  0     0  0
 14  2  1  0     0  0
 14 15  2  0     0  0
 15 16  1  0     0  0
 16  1  1  0     0  0
 13 17  1  0     0  0
 17 18  2  0     0  0
 18 19  1  0     0  0
 19 20  2  0     0  0
 20 21  1  0     0  0
 21 22  2  0     0  0
 22 17  1  0     0  0
 22 23  1  0     0  0
 23 12  1  0     0  0
  1 24  1  0     0  0
 24 25  2  0     0  0
 24 26  1  0     0  0
 26 27  1  0     0  0
M  END
> <ID>
CHEBI:156314

> <NAME>
erdasporine B

$$$$

Ketcher 08182015182D 1   1.00000     0.00000     0

 28 33  0     0  0            999 V2000
   15.1401  -22.1913    0.0000 C   0  0  0  0  0  0  0  0  0  0  0  0
   14.8311  -23.1425    0.0000 C   0  0  0  0  0  0  0  0  0  0  0  0
   15.3311  -24.0085    0.0000 C   0  0  0  0  0  0  0  0  0  0  0  0
   16.3092  -24.2163    0.0000 C   0  0  0  0  0  0  0  0  0  0  0  0
   17.1183  -23.6286    0.0000 C   0  0  0  0  0  0  0  0  0  0  0  0
   18.0317  -24.0354    0.0000 C   0  0  0  0  0  0  0  0  0  0  0  0
   18.1362  -25.0299    0.0000 C   0  0  0  0  0  0  0  0  0  0  0  0
   17.3273  -25.6177    0.0000 C   0  0  0  0  0  0  0  0  0  0  0  0
   16.4138  -25.2109    0.0000 C   0  0  0  0  0  0  0  0  0  0  0  0
   15.5002  -25.6177    0.0000 N   0  0  0  0  0  0  0  0  0  0  0  0
   14.8311  -24.8746    0.0000 C   0  0  0  0  0  0  0  0  0  0  0  0
   13.8311  -24.8746    0.0000 C   0  0  0  0  0  0  0  0  0  0  0  0
   13.3311  -24.0085    0.0000 C   0  0  0  0  0  0  0  0  0  0  0  0
   13.8311  -23.1425    0.0000 C   0  0  0  0  0  0  0  0  0  0  0  0
   13.5221  -22.1913    0.0000 C   0  0  0  0  0  0  0  0  0  0  0  0
   12.5710  -21.8824    0.0000 O   0  0  0  0  0  0  0  0  0  0  0  0
   14.3310  -21.6037    0.0000 N   0  0  0  0  0  0  0  0  0  0  0  0
   12.3530  -24.2163    0.0000 C   0  0  0  0  0  0  0  0  0  0  0  0
   11.5439  -23.6286    0.0000 C   0  0  0  0  0  0  0  0  0  0  0  0
   10.6304  -24.0354    0.0000 C   0  0  0  0  0  0  0  0  0  0  0  0
   10.5259  -25.0299    0.0000 C   0  0  0  0  0  0  0  0  0  0  0  0
   11.3349  -25.6177    0.0000 C   0  0  0  0  0  0  0  0  0  0  0  0
   12.2484  -25.2109    0.0000 C   0  0  0  0  0  0  0  0  0  0  0  0
   13.1620  -25.6177    0.0000 N   0  0  0  0  0  0  0  0  0  0  0  0
   16.0911  -21.8824    0.0000 C   0  0  0  0  0  0  0  0  0  0  0  0
   16.2990  -20.9042    0.0000 O   0  0  0  0  0  0  0  0  0  0  0  0
   16.8343  -22.5514    0.0000 O   0  0  0  0  0  0  0  0  0  0  0  0
   17.7853  -22.2423    0.0000 C   0  0  0  0  0  0  0  0  0  0  0  0
  1  2  1  0     0  0
  2  3  2  0     0  0
  3  4  1  0     0  0
  4  5  2  0     0  0
  5  6  1  0     0  0
  6  7  2  0     0  0
  7  8  1  0     0  0
  8  9  2  0     0  0
  9  4  1  0     0  0
  9 10  1  0     0  0
 10 11  1  0     0  0
 11  3  1  0     0  0
 11 12  2  0     0  0
 12 13  1  0     0  0
 13 14  2  0     0  0
 14  2  1  0     0  0
 14 15  1  0     0  0
 15 16  2  0     0  0
 15 17  1  0     0  0
 17  1  1  0     0  0
 13 18  1  0     0  0
 18 19  2  0     0  0
 19 20  1  0     0  0
 20 21  2  0     0  0
 21 22  1  0     0  0
 22 23  2  0     0  0
 23 18  1  0     0  0
 23 24  1  0     0  0
 24 12  1  0     0  0
  1 25  1  0     0  0
 25 26  2  0     0  0
 25 27  1  0     0  0
 27 28  1  0     0  0
M  END
> <ID>
CHEBI:156315

> <NAME>
erdasporine C

$$$$

Ketcher 08272015302D 1   1.00000     0.00000     0

 15 16  0     1  0            999 V2000
   18.1865   -5.0180    0.0000 C   0  0  0  0  0  0  0  0  0  0  0  0
   18.1865   -6.0180    0.0000 C   0  0  0  0  0  0  0  0  0  0  0  0
   17.3204   -4.5180    0.0000 C   0  0  0  0  0  0  0  0  0  0  0  0
   17.3204   -6.5180    0.0000 C   0  0  0  0  0  0  0  0  0  0  0  0
   16.4544   -5.0180    0.0000 O   0  0  0  0  0  0  0  0  0  0  0  0
   16.4544   -6.0180    0.0000 C   0  0  0  0  0  0  0  0  0  0  0  0
   17.3204   -3.5180    0.0000 O   0  0  0  0  0  0  0  0  0  0  0  0
   15.5884   -6.5180    0.0000 C   0  0  0  0  0  0  0  0  0  0  0  0
   17.3204   -7.5180    0.0000 O   0  0  0  0  0  0  0  0  0  0  0  0
   19.0525   -4.5180    0.0000 C   0  0  0  0  0  0  0  0  0  0  0  0
   19.5525   -3.6520    0.0000 O   0  0  0  0  0  0  0  0  0  0  0  0
   20.0525   -4.5180    0.0000 C   0  0  0  0  0  0  0  0  0  0  0  0
   20.9185   -5.0180    0.0000 C   0  0  0  0  0  0  0  0  0  0  0  0
   18.3454   -3.8109    0.0000 H   0  0  0  0  0  0  0  0  0  0  0  0
   20.7596   -3.8109    0.0000 H   0  0  0  0  0  0  0  0  0  0  0  0
  1  2  2  0     0  0
  1  3  1  0     0  0
  2  4  1  0     0  0
  3  5  1  0     0  0
  4  6  1  0     0  0
  5  6  1  0     0  0
  3  7  2  0     0  0
  6  8  1  1     0  0
  4  9  1  6     0  0
 10  1  1  0     0  0
 10 11  1  0     0  0
 10 12  1  0     0  0
 11 12  1  0     0  0
 12 13  1  0     0  0
 10 14  1  1     0  0
 12 15  1  6     0  0
M  END
> <ID>
CHEBI:156387

> <NAME>
aspyrone

$$$$

Ketcher 04152110582D 1   1.00000     0.00000     0

 13 15  0     1  0            999 V2000
    4.4429   -6.2683    0.0000 N   0  0  0  0  0  0  0  0  0  0  0  0
    4.1546   -7.1550    0.0000 C   0  0  0  0  0  0  0  0  0  0  0  0
    4.7027   -7.9096    0.0000 C   0  0  0  0  0  0  0  0  0  0  0  0
    4.1546   -8.6639    0.0000 C   0  0  0  0  0  0  0  0  0  0  0  0
    3.2677   -8.3758    0.0000 N   0  0  0  0  0  0  0  0  0  0  0  0
    3.2677   -7.4432    0.0000 C   0  0  0  0  0  0  0  0  0  0  0  0
    2.3809   -7.1550    0.0000 C   0  0  0  0  0  0  0  0  0  0  0  0
    3.0758   -6.5753    0.0000 O   0  0  0  0  0  0  0  0  0  0  0  0
    1.8328   -7.9095    0.0000 C   0  0  0  0  0  0  0  0  0  0  0  0
    2.3808   -8.6639    0.0000 C   0  0  0  0  0  0  0  0  0  0  0  0
    2.6075   -7.8962    0.0000 H   0  0  0  0  0  0  0  0  0  0  0  0
    5.3551   -6.0745    0.0000 R2  0  0  0  0  0  0  0  0  0  0  0  0
    3.8190   -5.5752    0.0000 R1  0  0  0  0  0  0  0  0  0  0  0  0
  2  1  1  1     0  0
  2  3  1  0     0  0
  3  4  1  0     0  0
  4  5  1  0     0  0
  6  5  1  0     0  0
  6  2  1  0     0  0
  6  7  1  0     0  0
  7  8  1  6     0  0
  3  8  1  6     0  0
  7  9  1  0     0  0
  9 10  1  0     0  0
 10  5  1  0     0  0
  6 11  1  1     0  0
  1 12  1  0     0  0
  1 13  1  0     0  0
M  END
> <ID>
CHEBI:156445

> <NAME>
loline alkaloid

$$$$

Ketcher 04152110002D 1   1.00000     0.00000     0

 11 13  0     1  0            999 V2000
    6.0086   -7.3290    0.0000 N   0  0  0  0  0  0  0  0  0  0  0  0
    5.7233   -8.2067    0.0000 C   0  0  0  0  0  0  0  0  0  0  0  0
    6.2658   -8.9535    0.0000 C   0  0  0  0  0  0  0  0  0  0  0  0
    5.7233   -9.7001    0.0000 C   0  0  0  0  0  0  0  0  0  0  0  0
    4.8455   -9.4149    0.0000 N   0  0  0  0  0  0  0  0  0  0  0  0
    4.8455   -8.4919    0.0000 C   0  0  0  0  0  0  0  0  0  0  0  0
    3.9678   -8.2067    0.0000 C   0  0  0  0  0  0  0  0  0  0  0  0
    4.6556   -7.6329    0.0000 O   0  0  0  0  0  0  0  0  0  0  0  0
    3.4253   -8.9534    0.0000 C   0  0  0  0  0  0  0  0  0  0  0  0
    3.9677   -9.7001    0.0000 C   0  0  0  0  0  0  0  0  0  0  0  0
    4.1921   -8.9402    0.0000 H   0  0  0  0  0  0  0  0  0  0  0  0
  2  1  1  1     0  0
  2  3  1  0     0  0
  3  4  1  0     0  0
  4  5  1  0     0  0
  6  5  1  0     0  0
  6  2  1  0     0  0
  6  7  1  0     0  0
  7  8  1  6     0  0
  3  8  1  6     0  0
  7  9  1  0     0  0
  9 10  1  0     0  0
 10  5  1  0     0  0
  6 11  1  1     0  0
M  END
> <ID>
CHEBI:156447

> <NAME>
norloline

$$$$

Ketcher 04152110082D 1   1.00000     0.00000     0

 12 14  0     1  0            999 V2000
    4.4216   -6.2382    0.0000 N   0  0  0  0  0  0  0  0  0  0  0  0
    4.1347   -7.1207    0.0000 C   0  0  0  0  0  0  0  0  0  0  0  0
    4.6802   -7.8717    0.0000 C   0  0  0  0  0  0  0  0  0  0  0  0
    4.1347   -8.6224    0.0000 C   0  0  0  0  0  0  0  0  0  0  0  0
    3.2521   -8.3356    0.0000 N   0  0  0  0  0  0  0  0  0  0  0  0
    3.2521   -7.4075    0.0000 C   0  0  0  0  0  0  0  0  0  0  0  0
    2.3695   -7.1207    0.0000 C   0  0  0  0  0  0  0  0  0  0  0  0
    3.0611   -6.5438    0.0000 O   0  0  0  0  0  0  0  0  0  0  0  0
    1.8240   -7.8715    0.0000 C   0  0  0  0  0  0  0  0  0  0  0  0
    2.3694   -8.6224    0.0000 C   0  0  0  0  0  0  0  0  0  0  0  0
    2.5950   -7.8583    0.0000 H   0  0  0  0  0  0  0  0  0  0  0  0
    5.3294   -6.0453    0.0000 C   0  0  0  0  0  0  0  0  0  0  0  0
  2  1  1  1     0  0
  2  3  1  0     0  0
  3  4  1  0     0  0
  4  5  1  0     0  0
  6  5  1  0     0  0
  6  2  1  0     0  0
  6  7  1  0     0  0
  7  8  1  6     0  0
  3  8  1  6     0  0
  7  9  1  0     0  0
  9 10  1  0     0  0
 10  5  1  0     0  0
  6 11  1  1     0  0
  1 12  1  0     0  0
M  END
> <ID>
CHEBI:156448

> <NAME>
loline

$$$$

Ketcher 09032010382D 1   1.00000     0.00000     0

 13 14  0     0  0            999 V2000
    8.6700   -8.6063    0.0000 C   0  0  0  0  0  0  0  0  0  0  0  0
    8.8925   -7.6314    0.0000 C   0  0  0  0  0  0  0  0  0  0  0  0
    9.7934   -7.1975    0.0000 C   0  0  0  0  0  0  0  0  0  0  0  0
    9.7934   -6.1975    0.0000 O   0  0  0  0  0  0  0  0  0  0  0  0
   10.6944   -7.6315    0.0000 C   0  0  0  0  0  0  0  0  0  0  0  0
   10.9169   -8.6063    0.0000 C   0  0  0  0  0  0  0  0  0  0  0  0
   10.2934   -9.3882    0.0000 C   0  0  0  0  0  0  0  0  0  0  0  0
    9.2934   -9.3882    0.0000 C   0  0  0  0  0  0  0  0  0  0  0  0
   11.0753  -10.0117    0.0000 S   0  0  0  0  0  0  0  0  0  0  0  0
   11.6988   -9.2298    0.0000 S   0  0  0  0  0  0  0  0  0  0  0  0
   11.4762   -7.0079    0.0000 C   0  0  0  0  0  0  0  0  0  0  0  0
   11.3272   -6.0190    0.0000 O   0  0  0  0  0  0  0  0  0  0  0  0
   12.4071   -7.3733    0.0000 O   0  0  0  0  0  0  0  0  0  0  0  0
  1  2  2  0     0  0
  2  3  1  0     0  0
  3  4  2  0     0  0
  3  5  1  0     0  0
  5  6  2  0     0  0
  6  7  1  0     0  0
  7  8  2  0     0  0
  8  1  1  0     0  0
  7  9  1  0     0  0
  9 10  1  0     0  0
 10  6  1  0     0  0
  5 11  1  0     0  0
 11 12  2  0     0  0
 11 13  1  0     0  0
M  END
> <ID>
CHEBI:156455

> <NAME>
tropodithietic acid

$$$$

Ketcher 09152111332D 1   1.00000     0.00000     0

 44 45  0     1  0            999 V2000
   12.1615   -6.8792    0.0000 C   0  0  0  0  0  0  0  0  0  0  0  0
   13.0252   -8.2070    0.0000 O   0  0  0  0  0  0  0  0  0  0  0  0
   13.0194   -7.3745    0.0000 C   0  0  0  0  0  0  0  0  0  0  0  0
   12.1620   -5.8883    0.0000 C   0  0  0  0  0  0  0  0  0  0  0  0
   13.0202   -5.3935    0.0000 C   0  0  0  0  0  0  0  0  0  0  0  0
   13.8782   -5.8891    0.0000 C   0  0  0  0  0  0  0  0  0  0  0  0
   13.8782   -6.8800    0.0000 C   0  0  0  0  0  0  0  0  0  0  0  0
   18.1690   -4.4026    0.0000 O   0  0  0  0  0  0  0  0  0  0  0  0
   17.3109   -3.9072    0.0000 C   0  0  0  0  0  0  0  0  0  0  0  0
   17.3109   -2.9163    0.0000 O   0  0  0  0  0  0  0  0  0  0  0  0
   16.4528   -4.4026    0.0000 C   0  0  0  0  0  0  0  0  0  0  0  0
   16.4528   -5.3935    0.0000 N   0  0  0  0  0  0  0  0  0  0  0  0
   15.5946   -3.9072    0.0000 C   0  0  0  0  0  0  0  0  0  0  0  0
   14.7364   -4.4026    0.0000 C   0  0  0  0  0  0  0  0  0  0  0  0
   14.7364   -5.3935    0.0000 O   0  0  0  0  0  0  0  0  0  0  0  0
   13.8783   -3.9072    0.0000 C   0  0  0  0  0  0  0  0  0  0  0  0
   13.0202   -4.4026    0.0000 S   0  0  0  0  0  0  0  0  0  0  0  0
   12.1621   -3.9072    0.0000 O   0  0  0  0  0  0  0  0  0  0  0  0
   14.7361   -7.3760    0.0000 O   0  0  0  0  0  0  0  0  0  0  0  0
   11.3042   -5.3924    0.0000 C   0  0  0  0  0  0  0  0  0  0  0  0
   11.3047   -4.4015    0.0000 O   0  0  0  0  0  0  0  0  0  0  0  0
   10.4457   -5.8874    0.0000 C   0  0  0  0  0  0  0  0  0  0  0  0
    9.5878   -5.3914    0.0000 N   0  0  0  0  0  0  0  0  0  0  0  0
   10.4442   -7.0590    0.0000 C   0  0  0  0  0  0  0  0  0  0  0  0
    9.5858   -7.5540    0.0000 N   0  0  0  0  0  0  0  0  0  0  0  0
   11.3020   -7.5550    0.0000 O   0  0  0  0  0  0  0  0  0  0  0  0
    9.5884   -4.4005    0.0000 C   0  0  0  0  0  0  0  0  0  0  0  0
   13.0252   -9.1979    0.0000 C   0  0  0  0  0  0  0  0  0  0  0  0
   12.1671   -9.6933    0.0000 C   0  0  0  0  0  0  0  0  0  0  0  0
   11.3089   -9.1979    0.0000 N   0  0  0  0  0  0  0  0  0  0  0  0
   10.4435   -9.5017    0.0000 C   0  0  0  0  0  0  0  0  0  0  0  0
    9.5853   -9.0063    0.0000 C   0  0  0  0  0  0  0  0  0  0  0  0
   10.4434  -10.4926    0.0000 O   0  0  0  0  0  0  0  0  0  0  0  0
    8.7272   -9.5017    0.0000 C   0  0  0  0  0  0  0  0  0  0  0  0
   12.1671  -10.6842    0.0000 C   0  0  0  0  0  0  0  0  0  0  0  0
   14.0161   -9.1979    0.0000 C   0  0  0  0  0  0  0  0  0  0  0  0
   13.5206  -10.0561    0.0000 C   0  0  0  0  0  0  0  0  0  0  0  0
   14.5115  -10.0561    0.0000 C   0  0  0  0  0  0  0  0  0  0  0  0
   11.3089  -11.1797    0.0000 O   0  0  0  0  0  0  0  0  0  0  0  0
   13.0252  -11.1797    0.0000 N   0  0  0  0  0  0  0  0  0  0  0  0
   13.0251  -12.1706    0.0000 C   0  0  0  0  0  0  0  0  0  0  0  0
   13.8833  -12.6661    0.0000 C   0  0  0  0  0  0  0  0  0  0  0  0
   13.8832  -13.6570    0.0000 O   0  0  0  0  0  0  0  0  0  0  0  0
   14.7414  -12.1706    0.0000 O   0  0  0  0  0  0  0  0  0  0  0  0
  4  1  1  0     0  0
  3  1  2  0     0  0
  3  2  1  0     0  0
  7  3  1  0     0  0
  4  5  2  0     0  0
  5  6  1  0     0  0
  6  7  2  0     0  0
  8  9  1  0     0  0
  9 10  2  0     0  0
  9 11  1  0     0  0
 11 12  1  1     0  0
 11 13  1  0     0  0
 13 14  1  0     0  0
 14 15  1  6     0  0
 14 16  1  0     0  0
 16 17  1  0     0  0
 17 18  2  0     0  0
 17  5  1  0     0  0
  7 19  1  0     0  0
  4 20  1  0     0  0
 20 21  1  6     0  0
 20 22  1  0     0  0
 22 23  1  1     0  0
 22 24  1  0     0  0
 24 25  1  0     0  0
 24 26  2  0     0  0
 23 27  1  0     0  0
 28  2  1  0     0  0
 28 29  1  0     0  0
 29 30  1  0     0  0
 30 31  1  0     0  0
 31 32  1  0     0  0
 31 33  2  0     0  0
 32 25  1  0     0  0
 32 34  1  6     0  0
 29 35  1  1     0  0
 28 36  1  1     0  0
 28 37  1  6     0  0
 37 38  1  0     0  0
 35 39  2  0     0  0
 35 40  1  0     0  0
 40 41  1  0     0  0
 41 42  1  0     0  0
 42 43  2  0     0  0
 42 44  1  0     0  0
M  END
> <ID>
CHEBI:167111

> <NAME>
ustiloxin B

$$$$

Ketcher 02152111442D 1   1.00000     0.00000     0

 24 25  0     0  0            999 V2000
    9.4312   -6.7556    0.0000 C   0  0  0  0  0  0  0  0  0  0  0  0
    8.5634   -6.2616    0.0000 C   0  0  0  0  0  0  0  0  0  0  0  0
   10.2990   -6.2616    0.0000 N   0  0  0  0  0  0  0  0  0  0  0  0
    9.4312   -7.7569    0.0000 C   0  0  0  0  0  0  0  0  0  0  0  0
    7.6955   -6.7556    0.0000 C   0  0  0  0  0  0  0  0  0  0  0  0
    8.5634   -5.2603    0.0000 C   0  0  0  0  0  0  0  0  0  0  0  0
   11.1669   -6.7556    0.0000 C   0  0  0  0  0  0  0  0  0  0  0  0
    8.5634   -8.2576    0.0000 C   0  0  0  0  0  0  0  0  0  0  0  0
    7.6955   -7.7569    0.0000 C   0  0  0  0  0  0  0  0  0  0  0  0
    9.4312   -4.7595    0.0000 O   0  0  0  0  0  0  0  0  0  0  0  0
    7.6955   -4.7595    0.0000 O   0  0  0  0  0  0  0  0  0  0  0  0
   12.0213   -6.2616    0.0000 C   0  0  0  0  0  0  0  0  0  0  0  0
   11.1669   -7.7569    0.0000 O   0  0  0  0  0  0  0  0  0  0  0  0
    6.8275   -8.2576    0.0000 O   0  0  0  0  0  0  0  0  0  0  0  0
   12.8891   -6.7556    0.0000 C   0  0  0  0  0  0  0  0  0  0  0  0
   13.7569   -6.2616    0.0000 C   0  0  0  0  0  0  0  0  0  0  0  0
   14.6248   -6.7556    0.0000 C   0  0  0  0  0  0  0  0  0  0  0  0
   13.7569   -5.2603    0.0000 C   0  0  0  0  0  0  0  0  0  0  0  0
   15.4926   -6.2616    0.0000 C   0  0  0  0  0  0  0  0  0  0  0  0
   14.6248   -4.7595    0.0000 C   0  0  0  0  0  0  0  0  0  0  0  0
   15.4926   -5.2603    0.0000 C   0  0  0  0  0  0  0  0  0  0  0  0
   16.3607   -4.7595    0.0000 O   0  0  0  0  0  0  0  0  0  0  0  0
   16.3607   -6.7556    0.0000 O   0  0  0  0  0  0  0  0  0  0  0  0
   16.3670   -7.7575    0.0000 C   0  0  0  0  0  0  0  0  0  0  0  0
  1  2  1  0     0  0
  1  3  1  0     0  0
  1  4  2  0     0  0
  2  5  2  0     0  0
  2  6  1  0     0  0
  3  7  1  0     0  0
  4  8  1  0     0  0
  5  9  1  0     0  0
  6 10  1  0     0  0
  6 11  2  0     0  0
  7 12  1  0     0  0
  7 13  2  0     0  0
  9 14  1  0     0  0
 12 15  2  0     0  0
 15 16  1  0     0  0
 16 17  2  0     0  0
 16 18  1  0     0  0
 17 19  1  0     0  0
 18 20  2  0     0  0
 19 21  2  0     0  0
 21 22  1  0     0  0
  8  9  2  0     0  0
 20 21  1  0     0  0
 19 23  1  0     0  0
 23 24  1  0     0  0
M  END
> <ID>
CHEBI:167489

> <NAME>
avenanthramide B

$$$$

Ketcher 05132114362D 1   1.00000     0.00000     0

 13 12  0     0  0            999 V2000
   16.2598  -15.5707    0.0000 O   0  0  0  0  0  0  0  0  0  0  0  0
   16.2598  -16.5708    0.0000 C   0  0  0  0  0  0  0  0  0  0  0  0
   17.1259  -17.0707    0.0000 O   0  0  0  0  0  0  0  0  0  0  0  0
   15.3939  -17.0707    0.0000 C   0  0  0  0  0  0  0  0  0  0  0  0
   15.3939  -18.0707    0.0000 N   0  0  0  0  0  0  0  0  0  0  0  0
   14.5277  -16.5708    0.0000 C   0  0  0  0  0  0  0  0  0  0  0  0
   13.6617  -17.0707    0.0000 C   0  0  0  0  0  0  0  0  0  0  0  0
   12.7958  -16.5708    0.0000 C   0  0  0  0  0  0  0  0  0  0  0  0
   11.9297  -17.0707    0.0000 N   0  0  0  0  0  0  0  0  0  0  0  0
   11.0636  -16.5708    0.0000 C   0  0  0  0  0  0  0  0  0  0  0  0
   11.0636  -15.5707    0.0000 N   0  0  0  0  0  0  0  0  0  0  0  0
   10.1976  -17.0707    0.0000 N   0  0  0  0  0  0  0  0  0  0  0  0
   14.5278  -15.5707    0.0000 C   0  0  0  0  0  0  0  0  0  0  0  0
  2  1  2  0     0  0
  3  2  1  0     0  0
  4  2  1  0     0  0
  4  5  1  0     0  0
  6  4  1  0     0  0
  7  6  1  0     0  0
  9  8  1  0     0  0
  7  8  1  0     0  0
 10  9  1  0     0  0
 11 10  2  0     0  0
 12 10  1  0     0  0
  6 13  1  0     0  0
M  END
> <ID>
CHEBI:171656

> <NAME>
3-methylarginine

$$$$

Ketcher 04282110382D 1   1.00000     0.00000     0

 20 21  0     1  0            999 V2000
   16.1919  -23.5368    0.0000 C   0  0  0  0  0  0  0  0  0  0  0  0
   16.1919  -24.5369    0.0000 C   0  0  0  0  0  0  0  0  0  0  0  0
   15.3258  -23.0368    0.0000 C   0  0  0  0  0  0  0  0  0  0  0  0
   15.3258  -25.0369    0.0000 C   0  0  0  0  0  0  0  0  0  0  0  0
   14.4596  -23.5368    0.0000 C   0  0  0  0  0  0  0  0  0  0  0  0
   14.4596  -24.5369    0.0000 C   0  0  0  0  0  0  0  0  0  0  0  0
   17.0579  -23.0369    0.0000 C   0  0  0  0  0  0  0  0  0  0  0  0
   17.9239  -23.5369    0.0000 C   0  0  0  0  0  0  0  0  0  0  0  0
   17.0578  -25.0368    0.0000 C   0  0  0  0  0  0  0  0  0  0  0  0
   17.9239  -24.5369    0.0000 C   0  0  0  0  0  0  0  0  0  0  0  0
   18.8749  -23.2280    0.0000 O   0  0  0  0  0  0  0  0  0  0  0  0
   19.4626  -24.0370    0.0000 C   0  0  0  0  0  0  0  0  0  0  0  0
   18.8750  -24.8460    0.0000 C   0  0  0  0  0  0  0  0  0  0  0  0
   13.5936  -25.0369    0.0000 O   0  0  0  0  0  0  0  0  0  0  0  0
   15.3258  -26.0370    0.0000 C   0  0  0  0  0  0  0  0  0  0  0  0
   19.1840  -25.7971    0.0000 C   0  0  0  0  0  0  0  0  0  0  0  0
   20.4625  -24.0370    0.0000 O   0  0  0  0  0  0  0  0  0  0  0  0
   16.1919  -22.5368    0.0000 C   0  0  0  0  0  0  0  0  0  0  0  0
   18.0285  -22.5424    0.0000 H   0  0  0  0  0  0  0  0  0  0  0  0
   18.0284  -25.5315    0.0000 H   0  0  0  0  0  0  0  0  0  0  0  0
  1  3  1  0     0  0
  2  4  2  0     0  0
  3  5  1  0     0  0
  4  6  1  0     0  0
  5  6  1  0     0  0
  1  7  1  0     0  0
  7  8  1  0     0  0
  2  9  1  0     0  0
  9 10  1  0     0  0
  8 11  1  0     0  0
 11 12  1  0     0  0
 10 13  1  0     0  0
 12 13  1  0     0  0
  6 14  2  0     0  0
  4 15  1  0     0  0
 13 16  2  0     0  0
 12 17  2  0     0  0
  8 10  1  0     0  0
  1 18  1  6     0  0
  8 19  1  6     0  0
 10 20  1  6     0  0
M  END
> <ID>
CHEBI:171660

> <NAME>
inuloxin A

$$$$

Ketcher 08192114362D 1   1.00000     0.00000     0

 20 21  0     0  0            999 V2000
    7.9624   -6.1988    0.0000 C   0  0  0  0  0  0  0  0  0  0  0  0
    7.9624   -7.1988    0.0000 C   0  0  0  0  0  0  0  0  0  0  0  0
    7.0963   -5.6988    0.0000 C   0  0  0  0  0  0  0  0  0  0  0  0
    7.0963   -7.6988    0.0000 C   0  0  0  0  0  0  0  0  0  0  0  0
    6.2303   -6.1988    0.0000 C   0  0  0  0  0  0  0  0  0  0  0  0
    6.2303   -7.1988    0.0000 C   0  0  0  0  0  0  0  0  0  0  0  0
    5.3643   -5.6988    0.0000 O   0  0  0  0  0  0  0  0  0  0  0  0
    8.8284   -7.6988    0.0000 C   0  0  0  0  0  0  0  0  0  0  0  0
    9.6945   -7.1988    0.0000 C   0  0  0  0  0  0  0  0  0  0  0  0
   10.5605   -7.6988    0.0000 N   0  0  0  0  0  0  0  0  0  0  0  0
   11.4265   -7.1988    0.0000 C   0  0  0  0  0  0  0  0  0  0  0  0
   12.2925   -7.6989    0.0000 C   0  0  0  0  0  0  0  0  0  0  0  0
   11.4265   -6.1988    0.0000 O   0  0  0  0  0  0  0  0  0  0  0  0
   13.1585   -7.1989    0.0000 C   0  0  0  0  0  0  0  0  0  0  0  0
   14.0245   -7.6990    0.0000 C   0  0  0  0  0  0  0  0  0  0  0  0
   14.8906   -7.1990    0.0000 C   0  0  0  0  0  0  0  0  0  0  0  0
   14.0245   -8.6990    0.0000 C   0  0  0  0  0  0  0  0  0  0  0  0
   15.7566   -7.6991    0.0000 C   0  0  0  0  0  0  0  0  0  0  0  0
   14.8905   -9.1990    0.0000 C   0  0  0  0  0  0  0  0  0  0  0  0
   15.7565   -8.6990    0.0000 C   0  0  0  0  0  0  0  0  0  0  0  0
  1  2  1  0     0  0
  1  3  2  0     0  0
  2  4  2  0     0  0
  3  5  1  0     0  0
  4  6  1  0     0  0
  5  6  2  0     0  0
  5  7  1  0     0  0
  2  8  1  0     0  0
  8  9  1  0     0  0
  9 10  1  0     0  0
 10 11  1  0     0  0
 11 12  1  0     0  0
 11 13  2  0     0  0
 12 14  2  0     0  0
 14 15  1  0     0  0
 15 16  1  0     0  0
 15 17  2  0     0  0
 16 18  2  0     0  0
 17 19  1  0     0  0
 18 20  1  0     0  0
 19 20  2  0     0  0
M  END
> <ID>
CHEBI:177872

> <NAME>
N-trans-cinnamoyltyramine

$$$$

Ketcher 09082110242D 1   1.00000     0.00000     0

 17 16  0     1  0            999 V2000
   15.6052  -12.3301    0.0000 O   0  0  0  0  0  0  0  0  0  0  0  0
   12.1413  -12.3301    0.0000 O   0  0  0  0  0  0  0  0  0  0  0  0
   17.3371  -12.3301    0.0000 O   0  0  0  0  0  0  0  0  0  0  0  0
   10.4092  -12.3301    0.0000 O   0  0  0  0  0  0  0  0  0  0  0  0
   13.8732  -13.3301    0.0000 N   0  0  0  0  0  0  0  0  0  0  0  0
   19.0691  -13.3301    0.0000 N   0  0  0  0  0  0  0  0  0  0  0  0
    8.6773  -13.3301    0.0000 N   0  0  0  0  0  0  0  0  0  0  0  0
   15.6052  -13.3301    0.0000 C   0  0  0  0  0  0  0  0  0  0  0  0
   12.1413  -13.3301    0.0000 C   0  0  0  0  0  0  0  0  0  0  0  0
   16.4711  -13.8301    0.0000 C   0  0  0  0  0  0  0  0  0  0  0  0
   14.7390  -13.8301    0.0000 C   0  0  0  0  0  0  0  0  0  0  0  0
   13.0072  -13.8301    0.0000 C   0  0  0  0  0  0  0  0  0  0  0  0
   11.2751  -13.8301    0.0000 C   0  0  0  0  0  0  0  0  0  0  0  0
   17.3371  -13.3301    0.0000 C   0  0  0  0  0  0  0  0  0  0  0  0
   10.4092  -13.3301    0.0000 C   0  0  0  0  0  0  0  0  0  0  0  0
   18.2031  -13.8301    0.0000 C   0  0  0  0  0  0  0  0  0  0  0  0
    9.5432  -13.8301    0.0000 C   0  0  0  0  0  0  0  0  0  0  0  0
  8  1  1  6     0  0
  9  2  1  1     0  0
 14  3  1  6     0  0
 15  4  1  1     0  0
  5 11  1  0     0  0
  5 12  1  0     0  0
  6 16  1  0     0  0
  7 17  1  0     0  0
  8 10  1  0     0  0
  8 11  1  0     0  0
  9 12  1  0     0  0
  9 13  1  0     0  0
 10 14  1  0     0  0
 13 15  1  0     0  0
 14 16  1  0     0  0
 15 17  1  0     0  0
M  END
> <ID>
CHEBI:178009

> <NAME>
pavettamine

$$$$

Ketcher 01182313332D 1   1.00000     0.00000     0

 75 78  0     1  0            999 V2000
    6.4190  -38.4379    0.0000 O   0  0  0  0  0  0  0  0  0  0  0  0
    5.3614  -35.6818    0.0000 O   0  0  0  0  0  0  0  0  0  0  0  0
    7.7613  -38.1737    0.0000 O   0  0  0  0  0  0  0  0  0  0  0  0
    4.8477  -34.0278    0.0000 O   0  0  0  0  0  0  0  0  0  0  0  0
   11.3627  -37.9509    0.0000 O   0  0  0  0  0  0  0  0  0  0  0  0
   11.3800  -32.9827    0.0000 O   0  0  0  0  0  0  0  0  0  0  0  0
   11.2416  -34.3404    0.0000 O   0  0  0  0  0  0  0  0  0  0  0  0
   18.6835  -33.0545    0.0000 O   0  0  0  0  0  0  0  0  0  0  0  0
   17.4361  -32.4998    0.0000 O   0  0  0  0  0  0  0  0  0  0  0  0
   12.2438  -32.4970    0.0000 O   0  0  0  0  0  0  0  0  0  0  0  0
   14.8395  -29.9981    0.0000 O   0  0  0  0  0  0  0  0  0  0  0  0
   22.2787  -33.3084    0.0000 O   0  0  0  0  0  0  0  0  0  0  0  0
   21.7420  -34.9564    0.0000 O   0  0  0  0  0  0  0  0  0  0  0  0
    9.6518  -29.9974    0.0000 O   0  0  0  0  0  0  0  0  0  0  0  0
   10.5130  -28.5056    0.0000 O   0  0  0  0  0  0  0  0  0  0  0  0
    6.2607  -36.7173    0.0000 N   0  0  0  0  0  0  0  0  0  0  0  0
    4.1860  -36.9555    0.0000 N   0  0  0  0  0  0  0  0  0  0  0  0
    8.9368  -36.9001    0.0000 N   0  0  0  0  0  0  0  0  0  0  0  0
    9.5446  -33.9878    0.0000 N   0  0  0  0  0  0  0  0  0  0  0  0
   18.3007  -30.9979    0.0000 N   0  0  0  0  0  0  0  0  0  0  0  0
    2.7148  -35.5970    0.0000 N   0  0  0  0  0  0  0  0  0  0  0  0
   10.8343  -36.3015    0.0000 N   0  0  0  0  0  0  0  0  0  0  0  0
   10.5123  -31.4939    0.0000 N   0  0  0  0  0  0  0  0  0  0  0  0
   20.3777  -32.6943    0.0000 N   0  0  0  0  0  0  0  0  0  0  0  0
   15.7045  -31.4967    0.0000 N   0  0  0  0  0  0  0  0  0  0  0  0
   13.1020  -30.9979    0.0000 N   0  0  0  0  0  0  0  0  0  0  0  0
   19.5138  -36.9705    0.0000 N   0  0  0  0  0  0  0  0  0  0  0  0
   18.9763  -38.6181    0.0000 N   0  0  0  0  0  0  0  0  0  0  0  0
   17.8175  -37.3240    0.0000 N   0  0  0  0  0  0  0  0  0  0  0  0
    4.8450  -37.7121    0.0000 C   0  0  0  0  0  0  0  0  0  0  0  0
    7.2468  -36.5197    0.0000 C   0  0  0  0  0  0  0  0  0  0  0  0
    4.3346  -38.5700    0.0000 C   0  0  0  0  0  0  0  0  0  0  0  0
    7.3634  -35.5243    0.0000 C   0  0  0  0  0  0  0  0  0  0  0  0
    5.7718  -35.8452    0.0000 C   0  0  0  0  0  0  0  0  0  0  0  0
    3.3628  -38.3507    0.0000 C   0  0  0  0  0  0  0  0  0  0  0  0
    5.8409  -37.6204    0.0000 C   0  0  0  0  0  0  0  0  0  0  0  0
    3.2711  -37.3547    0.0000 C   0  0  0  0  0  0  0  0  0  0  0  0
    6.4535  -35.1059    0.0000 C   0  0  0  0  0  0  0  0  0  0  0  0
    4.4109  -35.9838    0.0000 C   0  0  0  0  0  0  0  0  0  0  0  0
    7.9793  -37.1957    0.0000 C   0  0  0  0  0  0  0  0  0  0  0  0
    3.6715  -35.3014    0.0000 C   0  0  0  0  0  0  0  0  0  0  0  0
    3.8965  -34.3228    0.0000 C   0  0  0  0  0  0  0  0  0  0  0  0
    9.6496  -33.0028    0.0000 C   0  0  0  0  0  0  0  0  0  0  0  0
    9.6692  -37.5824    0.0000 C   0  0  0  0  0  0  0  0  0  0  0  0
    8.7333  -32.5983    0.0000 C   0  0  0  0  0  0  0  0  0  0  0  0
   19.2201  -31.4065    0.0000 C   0  0  0  0  0  0  0  0  0  0  0  0
    8.0706  -33.3409    0.0000 C   0  0  0  0  0  0  0  0  0  0  0  0
    8.5714  -34.2059    0.0000 C   0  0  0  0  0  0  0  0  0  0  0  0
   19.8889  -30.6634    0.0000 C   0  0  0  0  0  0  0  0  0  0  0  0
   19.3846  -29.7923    0.0000 C   0  0  0  0  0  0  0  0  0  0  0  0
   18.4048  -30.0024    0.0000 C   0  0  0  0  0  0  0  0  0  0  0  0
    3.1578  -33.6473    0.0000 C   0  0  0  0  0  0  0  0  0  0  0  0
   10.6261  -37.2805    0.0000 C   0  0  0  0  0  0  0  0  0  0  0  0
   10.5157  -32.4915    0.0000 C   0  0  0  0  0  0  0  0  0  0  0  0
   10.2908  -34.6567    0.0000 C   0  0  0  0  0  0  0  0  0  0  0  0
    9.4506  -38.5542    0.0000 C   0  0  0  0  0  0  0  0  0  0  0  0
   19.4210  -32.3828    0.0000 C   0  0  0  0  0  0  0  0  0  0  0  0
   10.0881  -35.6326    0.0000 C   0  0  0  0  0  0  0  0  0  0  0  0
   17.4363  -31.5000    0.0000 C   0  0  0  0  0  0  0  0  0  0  0  0
   11.3769  -30.9924    0.0000 C   0  0  0  0  0  0  0  0  0  0  0  0
   16.5691  -30.9952    0.0000 C   0  0  0  0  0  0  0  0  0  0  0  0
   20.5845  -33.6686    0.0000 C   0  0  0  0  0  0  0  0  0  0  0  0
   13.9667  -31.4969    0.0000 C   0  0  0  0  0  0  0  0  0  0  0  0
   12.2438  -31.4965    0.0000 C   0  0  0  0  0  0  0  0  0  0  0  0
   13.9664  -32.4967    0.0000 C   0  0  0  0  0  0  0  0  0  0  0  0
   11.3769  -29.9919    0.0000 C   0  0  0  0  0  0  0  0  0  0  0  0
   19.8404  -34.3426    0.0000 C   0  0  0  0  0  0  0  0  0  0  0  0
   14.8395  -30.9986    0.0000 C   0  0  0  0  0  0  0  0  0  0  0  0
   20.0479  -35.3166    0.0000 C   0  0  0  0  0  0  0  0  0  0  0  0
   21.5348  -33.9831    0.0000 C   0  0  0  0  0  0  0  0  0  0  0  0
   13.1084  -32.9959    0.0000 C   0  0  0  0  0  0  0  0  0  0  0  0
   14.8399  -32.9987    0.0000 C   0  0  0  0  0  0  0  0  0  0  0  0
   10.5161  -29.4991    0.0000 C   0  0  0  0  0  0  0  0  0  0  0  0
   19.3038  -35.9906    0.0000 C   0  0  0  0  0  0  0  0  0  0  0  0
   18.7675  -37.6393    0.0000 C   0  0  0  0  0  0  0  0  0  0  0  0
  1 36  2  0     0  0
  2 39  2  0     0  0
  3 40  2  0     0  0
 42  4  1  1     0  0
  5 53  2  0     0  0
  6 54  2  0     0  0
  7 55  2  0     0  0
  8 57  2  0     0  0
  9 59  2  0     0  0
 10 64  2  0     0  0
 11 68  2  0     0  0
 12 70  1  0     0  0
 13 70  2  0     0  0
 14 73  1  0     0  0
 15 73  2  0     0  0
 16 31  1  0     0  0
 16 34  1  0     0  0
 16 36  1  0     0  0
 17 30  1  0     0  0
 17 37  1  0     0  0
 17 39  1  0     0  0
 18 40  1  0     0  0
 44 18  1  6     0  0
 19 43  1  0     0  0
 19 48  1  0     0  0
 19 55  1  0     0  0
 20 46  1  0     0  0
 20 51  1  0     0  0
 20 59  1  0     0  0
 41 21  1  1     0  0
 22 53  1  0     0  0
 22 58  1  0     0  0
 23 54  1  0     0  0
 60 23  1  1     0  0
 24 57  1  0     0  0
 62 24  1  6     0  0
 25 61  1  0     0  0
 25 68  1  0     0  0
 63 26  1  6     0  0
 26 64  1  0     0  0
 27 74  1  0     0  0
 27 75  1  0     0  0
 28 75  1  0     0  0
 29 75  2  0     0  0
 30 32  1  0     0  0
 30 36  1  6     0  0
 31 33  1  0     0  0
 31 40  1  1     0  0
 32 35  1  0     0  0
 33 38  1  0     0  0
 34 38  1  0     0  0
 35 37  1  0     0  0
 39 41  1  0     0  0
 41 42  1  0     0  0
 42 52  1  0     0  0
 43 45  1  0     0  0
 43 54  1  1     0  0
 44 53  1  0     0  0
 44 56  1  0     0  0
 45 47  1  0     0  0
 46 49  1  0     0  0
 46 57  1  1     0  0
 47 48  1  0     0  0
 49 50  1  0     0  0
 50 51  1  0     0  0
 55 58  1  0     0  0
 59 61  1  0     0  0
 60 64  1  0     0  0
 60 66  1  0     0  0
 62 67  1  0     0  0
 62 70  1  0     0  0
 63 65  1  0     0  0
 63 68  1  0     0  0
 65 71  1  0     0  0
 65 72  1  0     0  0
 66 73  1  0     0  0
 67 69  1  0     0  0
 69 74  1  0     0  0
M  END
> <ID>
CHEBI:194213

> <NAME>
Thr-Pro-Pro-Ala-Gly-Pro-Asp-Val-Gly-Pro-Arg

$$$$

Ketcher 02201715472D 1   1.00000     0.00000     0

 11 11  0     1  0            999 V2000
   15.8349  -10.2784    0.0000 C   0  0  0  0  0  0  0  0  0  0  0  0
   14.8383  -10.2784    0.0000 C   0  0  0  0  0  0  0  0  0  0  0  0
   16.7022   -9.7863    0.0000 C   0  0  0  0  0  0  0  0  0  0  0  0
   15.3428  -11.1457    0.0000 C   0  0  0  0  0  0  0  0  0  0  0  0
   13.9751   -9.7696    0.0000 C   0  0  0  0  0  0  0  0  0  0  0  0
   17.5696  -10.2824    0.0000 C   0  0  0  0  0  0  0  0  0  0  0  0
   18.4370   -9.7904    0.0000 C   0  0  0  0  0  0  0  0  0  0  0  0
   17.5738  -11.2874    0.0000 N   0  0  0  0  0  0  0  0  0  0  0  0
   19.3044  -10.2908    0.0000 O   0  0  0  0  0  0  0  0  0  0  0  0
   18.4412   -8.7896    0.0000 O   0  0  0  0  0  0  0  0  0  0  0  0
   16.3349  -11.1444    0.0000 H   0  0  0  0  0  0  0  0  0  0  0  0
  1  2  1  0     0  0
  1  3  1  0     0  0
  1  4  1  0     0  0
  2  5  2  0     0  0
  3  6  1  0     0  0
  6  7  1  0     0  0
  6  8  1  1     0  0
  7  9  1  0     0  0
  7 10  2  0     0  0
  2  4  1  0     0  0
  1 11  1  1     0  0
M  END
> <ID>
CHEBI:6248

> <NAME>
(2S,4S)-hypoglycin A

$$$$



28 30  0  0  1  0  0  0  0  0999 V2000
   24.2933  -14.7458    0.0000 N   0  0  0  0  0  0  0  0  0  0  0  0
   24.2933  -16.1379    0.0000 C   0  0  0  0  0  0  0  0  0  0  0  0
   25.4766  -16.8340    0.0000 N   0  0  0  0  0  0  0  0  0  0  0  0
   26.7295  -16.1379    0.0000 C   0  0  0  0  0  0  0  0  0  0  0  0
   26.7295  -14.7458    0.0000 C   0  0  0  0  0  0  0  0  0  0  0  0
   25.4766  -14.0498    0.0000 C   0  0  0  0  0  0  0  0  0  0  0  0
   28.1920  -16.4156    0.0000 N   0  0  0  0  0  0  0  0  0  0  0  0
   28.8177  -15.4419    0.0000 C   0  0  0  0  0  0  0  0  0  0  0  0
   28.0520  -14.3282    0.0000 N   0  0  0  0  0  0  0  0  0  0  0  0
   25.8246  -18.1565    0.0000 C   0  0  0  0  0  0  0  0  0  0  0  0
   27.2171  -18.1557    0.0000 C   0  0  0  0  0  0  0  0  0  0  0  0
   27.7040  -17.0428    0.0000 C   0  0  0  0  0  0  0  0  0  0  0  0
   25.4766  -12.6576    0.0000 C   0  0  0  0  0  0  0  0  0  0  0  0
   26.7295  -13.3537    0.0000 H   0  0  0  0  0  0  0  0  0  0  0  0
   30.2098  -15.4419    0.0000 N   0  0  0  0  0  0  0  0  0  0  0  0
   23.1100  -16.8340    0.0000 N   0  0  0  0  0  0  0  0  0  0  0  0
   29.2353  -17.4605    0.0000 O   0  0  0  0  0  0  0  0  0  0  0  0
   28.8177  -18.3653    0.0000 O   0  0  0  0  0  0  0  0  0  0  0  0
   24.2933  -11.9616    0.0000 O   0  0  0  0  0  0  0  0  0  0  0  0
   24.2933  -10.5695    0.0000 C   0  0  0  0  0  0  0  0  0  0  0  0
   23.1100   -9.8734    0.0000 N   0  0  0  0  0  0  0  0  0  0  0  0
   25.4766   -9.8734    0.0000 O   0  0  0  0  0  0  0  0  0  0  0  0
   23.0848  -14.0546    0.0000 O   0  0  0  0  0  0  0  0  0  0  0  0
   27.8435  -19.5012    0.0000 O   0  0  0  0  0  0  0  0  0  0  0  0
   27.8435  -20.8933    0.0000 S   0  0  0  0  0  0  0  0  0  0  0  0
   27.8435  -22.2854    0.0000 O   0  0  0  0  0  0  0  0  0  0  0  0
   29.2351  -20.8933    0.0000 O   0  0  0  0  0  0  0  0  0  0  0  0
   26.4513  -20.8933    0.0000 O   0  0  0  0  0  0  0  0  0  0  0  0
  1  2  1  0     0  0
  2  3  1  0     0  0
  3  4  1  0     0  0
  4  5  1  0     0  0
  5  6  1  0     0  0
  1  6  1  0     0  0
  4  7  1  0     0  0
  7  8  1  0     0  0
  8  9  1  0     0  0
  5  9  1  0     0  0
  3 10  1  0     0  0
 10 11  1  0     0  0
 11 12  1  0     0  0
  4 12  1  1     0  0
  6 13  1  1     0  0
  5 14  1  1     0  0
  8 15  2  0     0  0
  2 16  2  0     0  0
 12 17  1  0     0  0
 12 18  1  0     0  0
 13 19  1  0     0  0
 19 20  1  0     0  0
 20 21  1  0     0  0
 20 22  2  0     0  0
  1 23  1  0     0  0
 11 24  1  6     0  0
 24 25  1  0     0  0
 25 26  1  0     0  0
 25 27  2  0     0  0
 25 28  2  0     0  0
M  END
> <ID>
CHEBI:80768

> <NAME>
Gonyautoxin 1

$$$$



27 29  0  0  1  0  0  0  0  0999 V2000
   24.2900  -14.7700    0.0000 N   0  0  0  0  0  0  0  0  0  0  0  0
   24.2900  -16.1700    0.0000 C   0  0  0  0  0  0  0  0  0  0  0  0
   25.4800  -16.8000    0.0000 N   0  0  0  0  0  0  0  0  0  0  0  0
   26.7400  -16.1700    0.0000 C   0  0  0  0  0  0  0  0  0  0  0  0
   26.7400  -14.7700    0.0000 C   0  0  0  0  0  0  0  0  0  0  0  0
   25.4800  -14.0700    0.0000 C   0  0  0  0  0  0  0  0  0  0  0  0
   28.2100  -16.4500    0.0000 N   0  0  0  0  0  0  0  0  0  0  0  0
   28.8400  -15.4700    0.0000 C   0  0  0  0  0  0  0  0  0  0  0  0
   28.0700  -14.3500    0.0000 N   0  0  0  0  0  0  0  0  0  0  0  0
   25.8300  -18.1300    0.0000 C   0  0  0  0  0  0  0  0  0  0  0  0
   27.1600  -18.2700    0.0000 C   0  0  0  0  0  0  0  0  0  0  0  0
   27.7200  -17.0100    0.0000 C   0  0  0  0  0  0  0  0  0  0  0  0
   25.4800  -12.6700    0.0000 C   0  0  0  0  0  0  0  0  0  0  0  0
   26.7400  -13.3700    0.0000 H   0  0  0  0  0  0  0  0  0  0  0  0
   30.2400  -15.4700    0.0000 N   0  0  0  0  0  0  0  0  0  0  0  0
   23.1000  -16.8000    0.0000 N   0  0  0  0  0  0  0  0  0  0  0  0
   29.2600  -17.4300    0.0000 O   0  0  0  0  0  0  0  0  0  0  0  0
   28.8400  -18.3400    0.0000 O   0  0  0  0  0  0  0  0  0  0  0  0
   24.2900  -11.9700    0.0000 O   0  0  0  0  0  0  0  0  0  0  0  0
   24.2900  -10.5700    0.0000 C   0  0  0  0  0  0  0  0  0  0  0  0
   23.1000   -9.8700    0.0000 N   0  0  0  0  0  0  0  0  0  0  0  0
   25.4800   -9.8700    0.0000 O   0  0  0  0  0  0  0  0  0  0  0  0
   27.8600  -19.5300    0.0000 O   0  0  0  0  0  0  0  0  0  0  0  0
   27.8600  -20.8600    0.0000 S   0  0  0  0  0  0  0  0  0  0  0  0
   27.8600  -22.2600    0.0000 O   0  0  0  0  0  0  0  0  0  0  0  0
   29.2600  -20.8600    0.0000 O   0  0  0  0  0  0  0  0  0  0  0  0
   26.4600  -20.8600    0.0000 O   0  0  0  0  0  0  0  0  0  0  0  0
  1  2  1  0     0  0
  2  3  1  0     0  0
  3  4  1  0     0  0
  4  5  1  0     0  0
  5  6  1  0     0  0
  1  6  1  0     0  0
  4  7  1  0     0  0
  7  8  1  0     0  0
  8  9  1  0     0  0
  5  9  1  0     0  0
  3 10  1  0     0  0
 10 11  1  0     0  0
 11 12  1  0     0  0
  4 12  1  1     0  0
  6 13  1  1     0  0
  5 14  1  1     0  0
  8 15  2  0     0  0
  2 16  2  0     0  0
 12 17  1  0     0  0
 12 18  1  0     0  0
 13 19  1  0     0  0
 19 20  1  0     0  0
 20 21  1  0     0  0
 20 22  2  0     0  0
 11 23  1  6     0  0
 23 24  1  0     0  0
 24 25  1  0     0  0
 24 26  2  0     0  0
 24 27  2  0     0  0
M  END
> <ID>
CHEBI:80769

> <NAME>
Gonyautoxin 2

$$$$

Ketcher 10251716472D 1   1.00000     0.00000     0

 25 27  0     1  0            999 V2000
   19.5880  -14.0773    0.0000 N   0  0  0  0  0  0  0  0  0  0  0  0
   19.5880  -15.0792    0.0000 C   0  0  0  0  0  0  0  0  0  0  0  0
   20.4396  -15.5802    0.0000 N   0  0  0  0  0  0  0  0  0  0  0  0
   21.3414  -15.0792    0.0000 C   0  0  0  0  0  0  0  0  0  0  0  0
   21.3414  -14.0773    0.0000 C   0  0  0  0  0  0  0  0  0  0  0  0
   20.4396  -13.5763    0.0000 C   0  0  0  0  0  0  0  0  0  0  0  0
   22.3934  -15.2796    0.0000 N   0  0  0  0  0  0  0  0  0  0  0  0
   22.8443  -14.5783    0.0000 C   0  0  0  0  0  0  0  0  0  0  0  0
   22.2932  -13.7767    0.0000 N   0  0  0  0  0  0  0  0  0  0  0  0
   20.6901  -16.5321    0.0000 C   0  0  0  0  0  0  0  0  0  0  0  0
   21.6921  -16.5321    0.0000 C   0  0  0  0  0  0  0  0  0  0  0  0
   22.0427  -15.7305    0.0000 C   0  0  0  0  0  0  0  0  0  0  0  0
   20.4396  -12.5744    0.0000 C   0  0  0  0  0  0  0  0  0  0  0  0
   21.3414  -13.0754    0.0000 H   0  0  0  0  0  0  0  0  0  0  0  0
   23.8462  -14.5783    0.0000 N   0  0  0  0  0  0  0  0  0  0  0  0
   18.7363  -15.5802    0.0000 N   0  0  0  0  0  0  0  0  0  0  0  0
   23.1449  -15.9309    0.0000 O   0  0  0  0  0  0  0  0  0  0  0  0
   22.6940  -16.6323    0.0000 O   0  0  0  0  0  0  0  0  0  0  0  0
   19.5880  -12.0233    0.0000 O   0  0  0  0  0  0  0  0  0  0  0  0
   18.7182  -13.5798    0.0000 O   0  0  0  0  0  0  0  0  0  0  0  0
   22.2405  -17.3706    0.0000 O   0  0  0  0  0  0  0  0  0  0  0  0
   21.7837  -18.2741    0.0000 S   0  0  0  0  0  0  0  0  0  0  0  0
   21.2827  -19.1418    0.0000 O   0  0  0  0  0  0  0  0  0  0  0  0
   22.6764  -18.7569    0.0000 O   0  0  0  0  0  0  0  0  0  0  0  0
   20.9138  -17.8037    0.0000 O   0  0  0  0  0  0  0  0  0  0  0  0
  1  2  1  0     0  0
  2  3  1  0     0  0
  3  4  1  0     0  0
  4  5  1  0     0  0
  5  6  1  0     0  0
  1  6  1  0     0  0
  4  7  1  0     0  0
  7  8  1  0     0  0
  8  9  1  0     0  0
  5  9  1  0     0  0
  3 10  1  0     0  0
 10 11  1  0     0  0
 11 12  1  0     0  0
  4 12  1  1     0  0
  6 13  1  1     0  0
  5 14  1  1     0  0
  8 15  2  0     0  0
  2 16  2  0     0  0
 12 17  1  0     0  0
 12 18  1  0     0  0
 13 19  1  0     0  0
  1 20  1  0     0  0
 11 21  1  6     0  0
 21 22  1  0     0  0
 22 23  1  0     0  0
 22 24  2  0     0  0
 22 25  2  0     0  0
M  END
> <ID>
CHEBI:138835

> <NAME>
Decarbamoylgonyautoxin 1

$$$$

Ketcher 10261715412D 1   1.00000     0.00000     0

 26 28  0     1  0            999 V2000
   19.5243  -13.3324    0.0000 N   0  0  0  0  0  0  0  0  0  0  0  0
   19.5243  -14.3311    0.0000 C   0  0  0  0  0  0  0  0  0  0  0  0
   20.3732  -14.8305    0.0000 N   0  0  0  0  0  0  0  0  0  0  0  0
   21.2720  -14.3311    0.0000 C   0  0  0  0  0  0  0  0  0  0  0  0
   21.2720  -13.3324    0.0000 C   0  0  0  0  0  0  0  0  0  0  0  0
   20.3732  -12.8331    0.0000 C   0  0  0  0  0  0  0  0  0  0  0  0
   22.3206  -14.5309    0.0000 N   0  0  0  0  0  0  0  0  0  0  0  0
   22.7700  -13.8318    0.0000 C   0  0  0  0  0  0  0  0  0  0  0  0
   22.2207  -13.0328    0.0000 N   0  0  0  0  0  0  0  0  0  0  0  0
   20.6228  -15.7792    0.0000 C   0  0  0  0  0  0  0  0  0  0  0  0
   21.6215  -15.7792    0.0000 C   0  0  0  0  0  0  0  0  0  0  0  0
   21.9711  -14.9803    0.0000 C   0  0  0  0  0  0  0  0  0  0  0  0
   20.3732  -11.8344    0.0000 C   0  0  0  0  0  0  0  0  0  0  0  0
   21.2720  -12.3338    0.0000 H   0  0  0  0  0  0  0  0  0  0  0  0
   23.7687  -13.8318    0.0000 N   0  0  0  0  0  0  0  0  0  0  0  0
   18.6754  -14.8305    0.0000 N   0  0  0  0  0  0  0  0  0  0  0  0
   23.0696  -15.2799    0.0000 O   0  0  0  0  0  0  0  0  0  0  0  0
   22.7700  -15.9290    0.0000 O   0  0  0  0  0  0  0  0  0  0  0  0
   19.5243  -11.3351    0.0000 O   0  0  0  0  0  0  0  0  0  0  0  0
   19.5243  -10.3364    0.0000 C   0  0  0  0  0  0  0  0  0  0  0  0
   18.6754   -9.8370    0.0000 N   0  0  0  0  0  0  0  0  0  0  0  0
   20.3732   -9.8370    0.0000 O   0  0  0  0  0  0  0  0  0  0  0  0
   17.8065  -10.3293    0.0000 S   0  0  0  0  0  0  0  0  0  0  0  0
   16.9416  -10.8287    0.0000 O   0  0  0  0  0  0  0  0  0  0  0  0
   17.3189   -9.4764    0.0000 O   0  0  0  0  0  0  0  0  0  0  0  0
   18.3100  -11.2102    0.0000 O   0  0  0  0  0  0  0  0  0  0  0  0
  1  2  1  0     0  0
  2  3  1  0     0  0
  3  4  1  0     0  0
  4  5  1  0     0  0
  5  6  1  0     0  0
  1  6  1  0     0  0
  4  7  1  0     0  0
  7  8  1  0     0  0
  8  9  1  0     0  0
  5  9  1  0     0  0
  3 10  1  0     0  0
 10 11  1  0     0  0
 11 12  1  0     0  0
  4 12  1  1     0  0
  6 13  1  1     0  0
  5 14  1  1     0  0
  8 15  2  0     0  0
  2 16  2  0     0  0
 12 17  1  0     0  0
 12 18  1  0     0  0
 13 19  1  0     0  0
 19 20  1  0     0  0
 20 21  1  0     0  0
 20 22  2  0     0  0
 21 23  1  0     0  0
 23 24  1  0     0  0
 23 25  2  0     0  0
 23 26  2  0     0  0
M  END
> <ID>
CHEBI:138870

> <NAME>
Gonyautoxin 5

$$$$

Ketcher 08312010592D 1   1.00000     0.00000     0

 17 18  0     0  0            999 V2000
    3.6056   -1.4186    0.0000 C   0  0  0  0  0  0  0  0  0  0  0  0
    2.8985   -0.7115    0.0000 C   0  0  0  0  0  0  0  0  0  0  0  0
    1.9326   -0.9703    0.0000 C   0  0  0  0  0  0  0  0  0  0  0  0
    1.2255   -0.2632    0.0000 C   0  0  0  0  0  0  0  0  0  0  0  0
    0.2596   -0.5220    0.0000 O   0  0  0  0  0  0  0  0  0  0  0  0
    1.4843    0.7027    0.0000 C   0  0  0  0  0  0  0  0  0  0  0  0
    0.5184    0.9615    0.0000 C   0  0  0  0  0  0  0  0  0  0  0  0
    1.2255    1.6686    0.0000 O   0  0  0  0  0  0  0  0  0  0  0  0
   -0.4475    0.7027    0.0000 C   0  0  0  0  0  0  0  0  0  0  0  0
   -0.7064   -0.2632    0.0000 O   0  0  0  0  0  0  0  0  0  0  0  0
   -1.1547    1.4098    0.0000 C   0  0  0  0  0  0  0  0  0  0  0  0
   -2.1206    1.1510    0.0000 C   0  0  0  0  0  0  0  0  0  0  0  0
   -2.3794    0.1851    0.0000 C   0  0  0  0  0  0  0  0  0  0  0  0
   -2.8277    1.8581    0.0000 C   0  0  0  0  0  0  0  0  0  0  0  0
    2.4502    0.9615    0.0000 C   0  0  0  0  0  0  0  0  0  0  0  0
    2.7090    1.9275    0.0000 O   0  0  0  0  0  0  0  0  0  0  0  0
    3.1573    0.2544    0.0000 N   0  0  0  0  0  0  0  0  0  0  0  0
  1  2  1  0     0  0
  2  3  2  0     0  0
  3  4  1  0     0  0
  4  5  2  0     0  0
  4  6  1  0     0  0
  6  7  1  0     0  0
  7  8  1  1     0  0
  6  8  1  1     0  0
  7  9  1  0     0  0
  9 10  2  0     0  0
  9 11  1  0     0  0
 11 12  1  0     0  0
 12 13  1  0     0  0
 12 14  1  0     0  0
  6 15  1  0     0  0
 15 16  2  0     0  0
 15 17  1  0     0  0
 17  2  1  0     0  0
M  END
> <ID>
CHEBI:156436

> <NAME>
(+)-flavipucine

$$$$

Ketcher 08312011232D 1   1.00000     0.00000     0

 17 18  0     1  0            999 V2000
    4.4641   -1.5000    0.0000 C   0  0  0  0  0  0  0  0  0  0  0  0
    3.5981   -1.0000    0.0000 C   0  0  0  0  0  0  0  0  0  0  0  0
    2.7321   -1.5000    0.0000 C   0  0  0  0  0  0  0  0  0  0  0  0
    1.8661   -1.0000    0.0000 C   0  0  0  0  0  0  0  0  0  0  0  0
    1.0001   -1.5000    0.0000 O   0  0  0  0  0  0  0  0  0  0  0  0
    1.8661    0.0000    0.0000 C   0  0  0  0  0  0  0  0  0  0  0  0
    0.8661    0.0000    0.0000 C   0  0  0  0  0  0  0  0  0  0  0  0
    1.3661    0.8660    0.0000 O   0  0  0  0  0  0  0  0  0  0  0  0
    0.0001   -0.5000    0.0000 C   0  0  0  0  0  0  0  0  0  0  0  0
    0.0001   -1.5000    0.0000 O   0  0  0  0  0  0  0  0  0  0  0  0
   -0.8660    0.0000    0.0000 C   0  0  0  0  0  0  0  0  0  0  0  0
   -1.7320   -0.5000    0.0000 C   0  0  0  0  0  0  0  0  0  0  0  0
   -1.7320   -1.5000    0.0000 C   0  0  0  0  0  0  0  0  0  0  0  0
   -2.5981    0.0000    0.0000 C   0  0  0  0  0  0  0  0  0  0  0  0
    2.7321    0.5000    0.0000 C   0  0  0  0  0  0  0  0  0  0  0  0
    2.7321    1.5000    0.0000 O   0  0  0  0  0  0  0  0  0  0  0  0
    3.5981    0.0000    0.0000 N   0  0  0  0  0  0  0  0  0  0  0  0
  1  2  1  0     0  0
  2  3  2  0     0  0
  3  4  1  0     0  0
  4  5  2  0     0  0
  6  4  1  0     0  0
  6  7  1  0     0  0
  7  8  1  6     0  0
  6  8  1  6     0  0
  7  9  1  0     0  0
  9 10  2  0     0  0
  9 11  1  0     0  0
 11 12  1  0     0  0
 12 13  1  0     0  0
 12 14  1  0     0  0
  6 15  1  0     0  0
 15 16  2  0     0  0
 15 17  1  0     0  0
 17  2  1  0     0  0
M  END
> <ID>
CHEBI:156437

> <NAME>
(-)-flavipucine

$$$$
53461858
  CDK     1106202311

 23 25  0  0  0  0  0  0  0  0999 V2000
    2.8148   -1.0652    0.0000 S   0  0  0  0  0  0  0  0  0  0  0  0
    4.9395   -1.7580    0.0000 O   0  0  0  0  0  0  0  0  0  0  0  0
    5.9252   -0.8095    0.0000 O   0  0  0  0  0  0  0  0  0  0  0  0
    3.5995   -1.3201    0.0000 O   0  0  0  0  0  0  0  0  0  0  0  0
    7.0918    2.1318    0.0000 O   0  0  0  0  0  0  0  0  0  0  0  0
    2.0302   -0.8103    0.0000 O   0  0  0  0  0  0  0  0  0  0  0  0
    2.5599   -1.8499    0.0000 O   0  0  0  0  0  0  0  0  0  0  0  0
    3.0697   -0.2806    0.0000 O   0  0  0  0  0  0  0  0  0  0  0  0
    4.9484    0.0692    0.0000 N   0  0  0  0  0  0  0  0  0  0  0  0
    5.8354   -1.1450    0.0000 N   0  0  0  0  0  0  0  0  0  0  0  0
    6.9853   -0.4812    0.0000 N   0  0  0  0  0  0  0  0  0  0  0  0
    5.6628    1.3067    0.0000 N   0  0  0  0  0  0  0  0  0  0  0  0
    4.2338    1.3067    0.0000 N   0  0  0  0  0  0  0  0  0  0  0  0
    7.0636   -1.9446    0.0000 N   0  0  0  0  0  0  0  0  0  0  0  0
    5.6628   -0.3433    0.0000 C   0  0  0  0  0  0  0  0  0  0  0  0
    5.1125   -0.9513    0.0000 C   0  0  0  0  0  0  0  0  0  0  0  0
    6.3773    0.0692    0.0000 C   0  0  0  0  0  0  0  0  0  0  0  0
    4.2125   -0.7681    0.0000 C   0  0  0  0  0  0  0  0  0  0  0  0
    4.1465   -0.1034    0.0000 C   0  0  0  0  0  0  0  0  0  0  0  0
    6.3773    0.8942    0.0000 C   0  0  0  0  0  0  0  0  0  0  0  0
    4.9484    0.8942    0.0000 C   0  0  0  0  0  0  0  0  0  0  0  0
    6.6511   -1.2301    0.0000 C   0  0  0  0  0  0  0  0  0  0  0  0
    7.0918    1.3067    0.0000 C   0  0  0  0  0  0  0  0  0  0  0  0
  1  4  1  0  0  0  0 
  1  6  1  0  0  0  0 
  1  7  2  0  0  0  0 
  1  8  2  0  0  0  0 
  2 16  1  0  0  0  0 
  3 16  1  0  0  0  0 
  4 18  1  0  0  0  0 
  5 23  1  0  0  0  0 
  9 15  1  0  0  0  0 
  9 19  1  0  0  0  0 
  9 21  1  0  0  0  0 
 10 15  1  0  0  0  0 
 10 22  1  0  0  0  0 
 11 17  1  0  0  0  0 
 11 22  2  0  0  0  0 
 12 20  1  0  0  0  0 
 12 21  2  0  0  0  0 
 13 21  1  0  0  0  0 
 14 22  1  0  0  0  0 
 15 16  1  0  0  0  0 
 15 17  1  0  0  0  0 
 16 18  1  0  0  0  0 
 17 20  1  0  0  0  0 
 18 19  1  0  0  0  0 
 20 23  1  0  0  0  0 
M  END
> <ID>
CHEBI:166661

> <NAME>
Decarbamoylgonyautoxin III

$$$$

Ketcher 02252113052D 1   1.00000     0.00000     0

 22 24  0     0  0            999 V2000
   -4.6500    2.1500    0.0000 C   0  0  0  0  0  0  0  0  0  0  0  0
   -3.7840    1.6500    0.0000 C   0  0  0  0  0  0  0  0  0  0  0  0
   -3.7840    0.6500    0.0000 C   0  0  0  0  0  0  0  0  0  0  0  0
   -4.6500    0.1500    0.0000 N   0  0  0  0  0  0  0  0  0  0  0  0
   -5.5160    0.6500    0.0000 C   0  0  0  0  0  0  0  0  0  0  0  0
   -5.5160    1.6500    0.0000 N   0  0  0  0  0  0  0  0  0  0  0  0
   -2.8058    1.8580    0.0000 N   0  0  0  0  0  0  0  0  0  0  0  0
   -2.3058    0.9919    0.0000 C   0  0  0  0  0  0  0  0  0  0  0  0
   -2.9750    0.2488    0.0000 N   0  0  0  0  0  0  0  0  0  0  0  0
   -6.3820    0.1500    0.0000 N   0  0  0  0  0  0  0  0  0  0  0  0
   -1.3058    0.9919    0.0000 N   0  0  0  0  0  0  0  0  0  0  0  0
   -3.1148   -0.0932    0.0000 C   0  0  0  0  0  0  0  0  0  0  0  0
   -3.6148   -0.9592    0.0000 C   0  0  0  0  0  0  0  0  0  0  0  0
   -4.5930   -0.7512    0.0000 C   0  0  0  0  0  0  0  0  0  0  0  0
   -2.6148   -0.9592    0.0000 O   0  0  0  0  0  0  0  0  0  0  0  0
   -2.1489   -0.3520    0.0000 O   0  0  0  0  0  0  0  0  0  0  0  0
   -3.8736   -1.9251    0.0000 R#  0  0  0  0  0  0  0  0  0  0  0  0
   -2.9077   -1.6663    0.0000 R#  0  0  0  0  0  0  0  0  0  0  0  0
   -3.7840    2.6500    0.0000 H   0  0  0  0  0  0  0  0  0  0  0  0
   -4.6500    3.1500    0.0000 C   0  0  0  0  0  0  0  0  0  0  0  0
   -5.3571    3.8571    0.0000 R#  0  0  0  0  0  0  0  0  0  0  0  0
   -6.2231    2.3571    0.0000 R#  0  0  0  0  0  0  0  0  0  0  0  0
  1  2  1  0     0  0
  2  3  1  0     0  0
  3  4  1  0     0  0
  4  5  1  0     0  0
  5  6  1  0     0  0
  6  1  1  0     0  0
  2  7  1  0     0  0
  7  8  1  0     0  0
  8  9  1  0     0  0
  9  3  1  0     0  0
  5 10  2  0     0  0
  8 11  2  0     0  0
  3 12  1  1     0  0
 12 13  1  0     0  0
 13 14  1  0     0  0
 14  4  1  0     0  0
 12 15  1  0     0  0
 12 16  1  0     0  0
 13 17  1  1     0  0
 13 18  1  6     0  0
  2 19  1  1     0  0
  1 20  1  1     0  0
 20 21  1  0     0  0
  6 22  1  0     0  0
M  RGP  4  17   2  18   3  21   4  22   1
M  END
> <ID>
CHEBI:167564

> <NAME>
paralytic shellfish toxin

$$$$

Ketcher 02132417372D 1   1.00000     0.00000     0

 13 12  0     0  0            999 V2000
    1.4513   -4.4966    0.0000 O   0  0  0  0  0  0  0  0  0  0  0  0
    1.4513   -5.4967    0.0000 C   0  0  0  0  0  0  0  0  0  0  0  0
    2.3173   -5.9966    0.0000 O   0  0  0  0  0  0  0  0  0  0  0  0
    0.5853   -5.9966    0.0000 C   0  0  0  0  0  0  0  0  0  0  0  0
    0.5853   -6.9966    0.0000 N   0  0  0  0  0  0  0  0  0  0  0  0
   -0.2808   -5.4967    0.0000 C   0  0  0  0  0  0  0  0  0  0  0  0
   -1.1469   -5.9966    0.0000 C   0  0  0  0  0  0  0  0  0  0  0  0
   -2.0127   -5.4967    0.0000 C   0  0  0  0  0  0  0  0  0  0  0  0
   -2.8789   -5.9966    0.0000 N   0  0  0  0  0  0  0  0  0  0  0  0
   -3.7450   -5.4967    0.0000 C   0  0  0  0  0  0  0  0  0  0  0  0
   -3.7450   -4.4966    0.0000 N   0  0  0  0  0  0  0  0  0  0  0  0
   -4.6110   -5.9966    0.0000 N   0  0  0  0  0  0  0  0  0  0  0  0
   -0.2807   -4.4966    0.0000 C   0  0  0  0  0  0  0  0  0  0  0  0
  2  1  2  0     0  0
  3  2  1  0     0  0
  4  2  1  0     0  0
  4  5  1  1     0  0
  6  4  1  0     0  0
  7  6  1  0     0  0
  9  8  1  0     0  0
  7  8  1  0     0  0
 10  9  1  0     0  0
 11 10  2  0     0  0
 12 10  1  0     0  0
  6 13  1  1     0  0
M  CHG  3   3  -1   5   1  11   1
M  END
> <ID>
CHEBI:229593

> <NAME>
(3R)-3-methyl-L-arginine zwitterion

$$$$

Marvin  03161213492D          

 25 28  0  0  0  0            999 V2000
    8.2092  -10.6148    0.0000 C   0  0  0  0  0  0  0  0  0  0  0  0
    8.9237  -10.2023    0.0000 C   0  0  0  0  0  0  0  0  0  0  0  0
    8.2092  -11.4398    0.0000 C   0  0  0  0  0  0  0  0  0  0  0  0
    7.4947  -10.2023    0.0000 C   0  0  0  0  0  0  0  0  0  0  0  0
    9.6382  -10.6148    0.0000 C   0  0  0  0  0  0  0  0  0  0  0  0
    8.9237   -9.3773    0.0000 C   0  0  0  0  0  0  0  0  0  0  0  0
    8.9237  -11.8523    0.0000 C   0  0  0  0  0  0  0  0  0  0  0  0
    7.4947  -11.8523    0.0000 C   0  0  0  0  0  0  0  0  0  0  0  0
    7.4947   -9.3773    0.0000 C   0  0  0  0  0  0  0  0  0  0  0  0
    6.7101  -10.4572    0.0000 O   0  0  0  0  0  0  0  0  0  0  0  0
    9.6382  -11.4398    0.0000 C   0  0  0  0  0  0  0  0  0  0  0  0
   10.4531  -10.4816    0.0000 N   0  3  0  0  0  0  0  0  0  0  0  0
    8.2092   -8.9648    0.0000 C   0  0  0  0  0  0  0  0  0  0  0  0
    9.6403   -8.9686    0.0000 C   0  0  0  0  0  0  0  0  0  0  0  0
    8.9237  -12.6773    0.0000 C   0  0  0  0  0  0  0  0  0  0  0  0
    7.4947  -12.6773    0.0000 C   0  0  0  0  0  0  0  0  0  0  0  0
    6.7101   -9.1223    0.0000 O   0  0  0  0  0  0  0  0  0  0  0  0
    6.2252   -9.7898    0.0000 C   0  0  0  0  0  0  0  0  0  0  0  0
   10.6930   -9.8497    0.0000 O   0  0  0  0  0  0  0  0  0  0  0  0
   10.9745  -11.1209    0.0000 O   0  5  0  0  0  0  0  0  0  0  0  0
    9.6447   -8.1436    0.0000 O   0  0  0  0  0  0  0  0  0  0  0  0
    8.2092  -13.0898    0.0000 C   0  0  0  0  0  0  0  0  0  0  0  0
    9.6382  -13.0898    0.0000 O   0  0  0  0  0  0  0  0  0  0  0  0
   10.3526  -12.6773    0.0000 C   0  0  0  0  0  0  0  0  0  0  0  0
   10.3526   -9.3849    0.0000 O   0  0  0  0  0  0  0  0  0  0  0  0
  1  2  2  0  0  0  0
  1  3  1  0  0  0  0
  1  4  1  0  0  0  0
  2  5  1  0  0  0  0
  2  6  1  0  0  0  0
  3  7  2  0  0  0  0
  3  8  1  0  0  0  0
  4  9  2  0  0  0  0
  4 10  1  0  0  0  0
  5 11  2  0  0  0  0
  5 12  1  0  0  0  0
  6 13  2  0  0  0  0
  6 14  1  0  0  0  0
  7 15  1  0  0  0  0
  8 16  2  0  0  0  0
  9 17  1  0  0  0  0
 10 18  1  0  0  0  0
 12 19  2  0  0  0  0
 12 20  1  0  0  0  0
 14 21  2  0  0  0  0
 15 22  2  0  0  0  0
 15 23  1  0  0  0  0
 23 24  1  0  0  0  0
  7 11  1  0  0  0  0
  9 13  1  0  0  0  0
 16 22  1  0  0  0  0
 17 18  1  0  0  0  0
 14 25  1  0  0  0  0
M  CHG  2  12   1  20  -1
M  END
> <ID>
CHEBI:2825

> <NAME>
aristolochic acid A

$$$$

Marvin  04021315082D          

 14 14  0  0  1  0            999 V2000
    8.2473   -7.4199    0.0000 C   0  0  0  0  0  0  0  0  0  0  0  0
    8.9461   -7.8581    0.0000 N   0  0  0  0  0  0  0  0  0  0  0  0
    7.8439   -6.7003    0.0000 C   0  0  0  0  0  0  0  0  0  0  0  0
    8.6575   -6.6655    0.0000 C   0  0  0  0  0  0  0  0  0  0  0  0
    7.5448   -7.8545    0.0000 O   0  0  0  0  0  0  0  0  0  0  0  0
    9.6484   -7.4235    0.0000 C   0  0  0  0  0  0  0  0  0  0  0  0
   10.3473   -7.8581    0.0000 C   0  0  0  0  0  0  0  0  0  0  0  0
    9.6519   -6.5473    0.0000 O   0  0  0  0  0  0  0  0  0  0  0  0
   11.0496   -7.4235    0.0000 C   0  0  0  0  0  0  0  0  0  0  0  0
   11.7520   -7.8581    0.0000 C   0  0  1  0  0  0  0  0  0  0  0  0
   12.4509   -7.4235    0.0000 C   0  0  0  0  0  0  0  0  0  0  0  0
   11.7554   -8.6717    0.0000 N   0  0  0  0  0  0  0  0  0  0  0  0
   13.1497   -7.8581    0.0000 O   0  0  0  0  0  0  0  0  0  0  0  0
   12.4543   -6.5473    0.0000 O   0  0  0  0  0  0  0  0  0  0  0  0
  1  2  1  0  0  0  0
  1  3  1  0  0  0  0
  1  4  1  0  0  0  0
  1  5  1  0  0  0  0
  2  6  1  0  0  0  0
  6  7  1  0  0  0  0
  6  8  2  0  0  0  0
  7  9  1  0  0  0  0
  9 10  1  0  0  0  0
 10 11  1  0  0  0  0
 10 12  1  1  0  0  0
 11 13  1  0  0  0  0
 11 14  2  0  0  0  0
  3  4  1  0  0  0  0
M  END
> <ID>
CHEBI:3875

> <NAME>
coprine

$$$$

Marvin  06211316232D          

 14 16  0  0  1  0            999 V2000
   17.3738  -15.4324    0.0000 N   0  0  0  0  0  0  0  0  0  0  0  0
   17.9572  -14.8490    0.0000 C   0  0  0  0  0  0  0  0  0  0  0  0
   17.3738  -16.2574    0.0000 C   0  0  0  0  0  0  0  0  0  0  0  0
   17.9572  -16.8407    0.0000 C   0  0  1  0  0  0  0  0  0  0  0  0
   18.7822  -14.8490    0.0000 C   0  0  2  0  0  0  0  0  0  0  0  0
   18.7822  -16.8407    0.0000 C   0  0  0  0  0  0  0  0  0  0  0  0
   19.3656  -15.4324    0.0000 C   0  0  0  0  0  0  0  0  0  0  0  0
   19.3656  -16.2574    0.0000 N   0  0  0  0  0  0  0  0  0  0  0  0
   20.0801  -15.0199    0.0000 C   0  0  0  0  0  0  0  0  0  0  0  0
   20.7946  -15.4324    0.0000 C   0  0  0  0  0  0  0  0  0  0  0  0
   20.0801  -16.6699    0.0000 C   0  0  0  0  0  0  0  0  0  0  0  0
   20.7945  -16.2574    0.0000 C   0  0  0  0  0  0  0  0  0  0  0  0
   20.0794  -17.4949    0.0000 O   0  0  0  0  0  0  0  0  0  0  0  0
   17.9919  -15.7355    0.0000 C   0  0  0  0  0  0  0  0  0  0  0  0
  2  1  1  0  0  0  0
  3  1  1  0  0  0  0
  5  2  1  0  0  0  0
  4  3  1  0  0  0  0
  6  4  1  0  0  0  0
  7  5  1  0  0  0  0
  8  6  1  0  0  0  0
  9  7  2  0  0  0  0
  8  7  1  0  0  0  0
 10  9  1  0  0  0  0
 11  8  1  0  0  0  0
 12 10  2  0  0  0  0
 12 11  1  0  0  0  0
 11 13  2  0  0  0  0
  5 14  1  1  0  0  0
  4 14  1  1  0  0  0
M  END
> <ID>
CHEBI:4055

> <NAME>
cytisine

$$$$

Mrv0541 11171417302D          

 25 28  0  0  0  0            999 V2000
    8.2198   -3.1799    0.0000 C   0  0  0  0  0  0  0  0  0  0  0  0
    8.2198   -4.0049    0.0000 C   0  0  0  0  0  0  0  0  0  0  0  0
    7.5053   -2.7674    0.0000 C   0  0  0  0  0  0  0  0  0  0  0  0
    7.5053   -4.4174    0.0000 C   0  0  0  0  0  0  0  0  0  0  0  0
    6.7909   -3.1799    0.0000 C   0  0  0  0  0  0  0  0  0  0  0  0
    6.7909   -4.0049    0.0000 C   0  0  0  0  0  0  0  0  0  0  0  0
    9.4893   -3.5427    0.0000 C   0  0  0  0  0  0  0  0  0  0  0  0
    9.0045   -4.2598    0.0000 N   0  0  0  0  0  0  0  0  0  0  0  0
    8.9343   -1.9424    0.0000 C   0  0  0  0  0  0  0  0  0  0  0  0
    8.9343   -2.8171    0.0000 C   0  0  0  0  0  0  0  0  0  0  0  0
    8.2198   -1.5299    0.0000 C   0  0  2  0  0  0  0  0  0  0  0  0
    7.5053   -1.9424    0.0000 C   0  0  0  0  0  0  0  0  0  0  0  0
    8.2197   -0.7050    0.0000 N   0  0  0  0  0  0  0  0  0  0  0  0
    7.5052   -0.2925    0.0000 C   0  0  0  0  0  0  0  0  0  0  0  0
    6.7909   -1.5300    0.0000 C   0  0  0  0  0  0  0  0  0  0  0  0
    6.7909   -0.7050    0.0000 C   0  0  1  0  0  0  0  0  0  0  0  0
    8.9342   -0.2924    0.0000 C   0  0  0  0  0  0  0  0  0  0  0  0
    6.0764   -0.2926    0.0000 C   0  0  0  0  0  0  0  0  0  0  0  0
    5.3343   -0.7371    0.0000 N   0  0  0  0  0  0  0  0  0  0  0  0
    6.0763    0.5724    0.0000 O   0  0  0  0  0  0  0  0  0  0  0  0
    5.3343   -1.6021    0.0000 C   0  0  2  0  0  0  0  0  0  0  0  0
    4.5922   -2.0466    0.0000 C   0  0  0  0  0  0  0  0  0  0  0  0
    6.0982   -2.0349    0.0000 C   0  0  0  0  0  0  0  0  0  0  0  0
    4.5902   -2.8667    0.0000 O   0  0  0  0  0  0  0  0  0  0  0  0
    8.9367   -1.1174    0.0000 H   0  0  0  0  0  0  0  0  0  0  0  0
  3  1  2  0  0  0  0
  4  2  2  0  0  0  0
  5  3  1  0  0  0  0
  6  4  1  0  0  0  0
  6  5  2  0  0  0  0
 10  1  1  0  0  0  0
  2  1  1  0  0  0  0
  7 10  2  0  0  0  0
  8  2  1  0  0  0  0
  8  7  1  0  0  0  0
 10  9  1  0  0  0  0
 11  9  1  0  0  0  0
  3 12  1  0  0  0  0
 13 11  1  0  0  0  0
 12 11  1  0  0  0  0
 14 13  1  0  0  0  0
 15 12  2  0  0  0  0
 16 14  1  0  0  0  0
 16 15  1  0  0  0  0
 13 17  1  0  0  0  0
 16 18  1  1  0  0  0
 19 18  1  0  0  0  0
 20 18  2  0  0  0  0
 21 19  1  0  0  0  0
 22 21  1  0  0  0  0
 21 23  1  1  0  0  0
 22 24  1  0  0  0  0
 11 25  1  1  0  0  0
M  END
> <ID>
CHEBI:4822

> <NAME>
ergometrine

$$$$

Marvin  03081215452D          

 22 25  0  0  1  0            999 V2000
   18.3242  -22.5830    0.0000 C   0  0  0  0  0  0  0  0  0  0  0  0
   18.8093  -21.9156    0.0000 C   0  0  0  0  0  0  0  0  0  0  0  0
   18.8091  -23.2505    0.0000 C   0  0  2  0  0  0  0  0  0  0  0  0
   19.5939  -22.1706    0.0000 C   0  0  2  0  0  0  0  0  0  0  0  0
   19.5939  -22.9956    0.0000 N   0  0  0  0  0  0  0  0  0  0  0  0
   20.3082  -21.7582    0.0000 C   0  0  0  0  0  0  0  0  0  0  0  0
   21.0227  -22.1707    0.0000 N   0  0  0  0  0  0  0  0  0  0  0  0
   20.3083  -23.4081    0.0000 C   0  0  0  0  0  0  0  0  0  0  0  0
   21.0227  -22.9956    0.0000 C   0  0  1  0  0  0  0  0  0  0  0  0
   17.5038  -22.6692    0.0000 C   0  0  0  0  0  0  0  0  0  0  0  0
   17.1682  -23.4230    0.0000 C   0  0  0  0  0  0  0  0  0  0  0  0
   18.4735  -24.0042    0.0000 C   0  0  2  0  0  0  0  0  0  0  0  0
   17.6531  -24.0903    0.0000 C   0  0  0  0  0  0  0  0  0  0  0  0
   20.3083  -20.9331    0.0000 O   0  0  0  0  0  0  0  0  0  0  0  0
   20.3083  -24.2331    0.0000 O   0  0  0  0  0  0  0  0  0  0  0  0
   18.9584  -24.6716    0.0000 O   0  0  0  0  0  0  0  0  0  0  0  0
   20.2840  -22.1761    0.0000 S   0  0  0  0  0  0  0  0  0  0  0  0
   20.2227  -22.8861    0.0000 S   0  0  0  0  0  0  0  0  0  0  0  0
   21.7372  -23.4081    0.0000 C   0  0  0  0  0  0  0  0  0  0  0  0
   22.4517  -22.9956    0.0000 O   0  0  0  0  0  0  0  0  0  0  0  0
   19.2329  -23.7626    0.0000 H   0  0  0  0  0  0  0  0  0  0  0  0
   21.7372  -21.7582    0.0000 C   0  0  0  0  0  0  0  0  0  0  0  0
  2  1  1  0  0  0  0
  4  2  1  0  0  0  0
  5  3  1  0  0  0  0
  6  4  1  0  0  0  0
  5  4  1  0  0  0  0
  7  6  1  0  0  0  0
  8  5  1  0  0  0  0
  9  7  1  0  0  0  0
  9  8  1  0  0  0  0
 10  1  2  0  0  0  0
  3  1  1  0  0  0  0
 11 10  1  0  0  0  0
 12  3  1  0  0  0  0
 13 11  2  0  0  0  0
 13 12  1  0  0  0  0
  6 14  2  0  0  0  0
  8 15  2  0  0  0  0
 12 16  1  1  0  0  0
  4 17  1  6  0  0  0
  9 18  1  6  0  0  0
 17 18  1  0  0  0  0
  9 19  1  0  0  0  0
 19 20  1  0  0  0  0
  3 21  1  1  0  0  0
  7 22  1  0  0  0  0
M  END
> <ID>
CHEBI:5385

> <NAME>
gliotoxin

$$$$

Ketcher 02182112152D 1   1.00000     0.00000     0

 28 30  0     0  0            999 V2000
   -3.4091    4.2955    0.0000 C   0  0  0  0  0  0  0  0  0  0  0  0
   -4.2751    3.7955    0.0000 C   0  0  0  0  0  0  0  0  0  0  0  0
   -4.2751    2.7954    0.0000 C   0  0  0  0  0  0  0  0  0  0  0  0
   -3.4091    2.2954    0.0000 C   0  0  0  0  0  0  0  0  0  0  0  0
   -2.5430    2.7954    0.0000 C   0  0  0  0  0  0  0  0  0  0  0  0
   -2.5430    3.7955    0.0000 C   0  0  0  0  0  0  0  0  0  0  0  0
   -1.6771    4.2955    0.0000 C   0  0  0  0  0  0  0  0  0  0  0  0
    0.0550    5.2955    0.0000 O   0  0  0  0  0  0  0  0  0  0  0  0
    0.0550    4.2955    0.0000 C   0  0  0  0  0  0  0  0  0  0  0  0
    0.9210    3.7955    0.0000 O   0  0  0  0  0  0  0  0  0  0  0  0
   -0.8110    3.7955    0.0000 C   0  0  0  0  0  0  0  0  0  0  0  0
   -0.8110    2.7955    0.0000 N   0  0  0  0  0  0  0  0  0  0  0  0
    0.9210    2.7955    0.0000 O   0  0  0  0  0  0  0  0  0  0  0  0
    0.0550    2.2955    0.0000 C   0  0  0  0  0  0  0  0  0  0  0  0
    0.0550    1.2955    0.0000 C   0  0  0  0  0  0  0  0  0  0  0  0
   -0.8110    0.7954    0.0000 C   0  0  0  0  0  0  0  0  0  0  0  0
    0.9210    0.7954    0.0000 C   0  0  0  0  0  0  0  0  0  0  0  0
    0.9210   -0.2046    0.0000 C   0  0  0  0  0  0  0  0  0  0  0  0
    0.0550   -0.7046    0.0000 C   0  0  0  0  0  0  0  0  0  0  0  0
    0.0550   -1.7046    0.0000 C   0  0  0  0  0  0  0  0  0  0  0  0
    1.7870   -0.7046    0.0000 C   0  0  0  0  0  0  0  0  0  0  0  0
    2.6531   -0.2046    0.0000 O   0  0  0  0  0  0  0  0  0  0  0  0
    1.7870   -1.7046    0.0000 O   0  0  0  0  0  0  0  0  0  0  0  0
   -0.8110   -0.2046    0.0000 C   0  0  0  0  0  0  0  0  0  0  0  0
   -1.6771   -0.7046    0.0000 Cl  0  0  0  0  0  0  0  0  0  0  0  0
    0.9210   -2.2046    0.0000 C   0  0  0  0  0  0  0  0  0  0  0  0
    0.9210   -3.2046    0.0000 C   0  0  0  0  0  0  0  0  0  0  0  0
    1.7870    1.2954    0.0000 O   0  0  0  0  0  0  0  0  0  0  0  0
  1  2  2  0     0  0
  1  6  1  0     0  0
  2  3  1  0     0  0
  3  4  2  0     0  0
  4  5  1  0     0  0
  5  6  2  0     0  0
  6  7  1  0     0  0
  7 11  1  0     0  0
 11  9  1  0     0  0
  9  8  2  0     0  0
  9 10  1  0     0  0
 11 12  1  1     0  0
 12 14  1  0     0  0
 14 13  2  0     0  0
 14 15  1  0     0  0
 15 16  2  0     0  0
 15 17  1  0     0  0
 16 24  1  0     0  0
 24 19  2  0     0  0
 18 17  2  0     0  0
 18 21  1  0     0  0
 18 19  1  0     0  0
 19 20  1  0     0  0
 20 26  1  0     0  0
 26 23  1  0     0  0
 23 21  1  0     0  0
 21 22  2  0     0  0
 24 25  1  0     0  0
 26 27  1  6     0  0
 17 28  1  0     0  0
M  END
> <ID>
CHEBI:7719

> <NAME>
ochratoxin A

$$$$

Mrv0541 12091316132D          

 67 75  0  0  1  0            999 V2000
   13.5086  -16.0467    0.0000 C   0  0  1  0  0  0  0  0  0  0  0  0
   13.5086  -15.2238    0.0000 C   0  0  0  0  0  0  0  0  0  0  0  0
   14.2260  -16.4582    0.0000 C   0  0  0  0  0  0  0  0  0  0  0  0
   14.2260  -14.8122    0.0000 C   0  0  0  0  0  0  0  0  0  0  0  0
   14.9351  -15.2238    0.0000 C   0  0  1  0  0  0  0  0  0  0  0  0
   14.9316  -16.0467    0.0000 C   0  0  0  0  0  0  0  0  0  0  0  0
   15.6455  -16.4612    0.0000 C   0  0  0  0  0  0  0  0  0  0  0  0
   16.3547  -16.0528    0.0000 C   0  0  0  0  0  0  0  0  0  0  0  0
   15.6527  -14.8153    0.0000 C   0  0  2  0  0  0  0  0  0  0  0  0
   16.3547  -15.2317    0.0000 C   0  0  2  0  0  0  0  0  0  0  0  0
   16.3725  -13.5943    0.0000 C   0  0  0  0  0  0  0  0  0  0  0  0
   15.6594  -13.9947    0.0000 C   0  0  0  0  0  0  0  0  0  0  0  0
   17.0830  -14.0105    0.0000 C   0  0  1  0  0  0  0  0  0  0  0  0
   17.0776  -14.8345    0.0000 C   0  0  1  0  0  0  0  0  0  0  0  0
   17.8590  -15.0926    0.0000 C   0  0  0  0  0  0  0  0  0  0  0  0
   17.8677  -13.7585    0.0000 C   0  0  2  0  0  0  0  0  0  0  0  0
   18.3454  -14.4316    0.0000 C   0  0  1  0  0  0  0  0  0  0  0  0
   18.3531  -13.0912    0.0000 C   0  0  1  0  0  0  0  0  0  0  0  0
   19.1359  -13.3491    0.0000 C   0  0  2  0  0  0  0  0  0  0  0  0
   19.1305  -14.1782    0.0000 N   0  0  0  0  0  0  0  0  0  0  0  0
   19.8452  -14.5955    0.0000 C   0  0  0  0  0  0  0  0  0  0  0  0
   20.5613  -14.1835    0.0000 C   0  0  2  0  0  0  0  0  0  0  0  0
   20.5667  -13.3586    0.0000 C   0  0  0  0  0  0  0  0  0  0  0  0
   19.8561  -12.9413    0.0000 C   0  0  0  0  0  0  0  0  0  0  0  0
   14.9277  -14.4008    0.0000 C   0  0  0  0  0  0  0  0  0  0  0  0
   15.6457  -15.6352    0.0000 H   0  0  0  0  0  0  0  0  0  0  0  0
   16.3469  -14.4050    0.0000 H   0  0  0  0  0  0  0  0  0  0  0  0
   17.0732  -15.6520    0.0000 H   0  0  0  0  0  0  0  0  0  0  0  0
   17.0774  -13.1874    0.0000 C   0  0  0  0  0  0  0  0  0  0  0  0
   17.5393  -14.4722    0.0000 H   0  0  0  0  0  0  0  0  0  0  0  0
   18.9289  -15.0096    0.0000 H   0  0  0  0  0  0  0  0  0  0  0  0
   18.1355  -12.2931    0.0000 C   0  0  0  0  0  0  0  0  0  0  0  0
   19.1306  -12.5240    0.0000 H   0  0  0  0  0  0  0  0  0  0  0  0
   21.2719  -14.5981    0.0000 C   0  0  0  0  0  0  0  0  0  0  0  0
   12.7944  -16.4603    0.0000 O   0  0  0  0  0  0  0  0  0  0  0  0
   12.0794  -16.0489    0.0000 C   0  0  1  0  0  0  0  0  0  0  0  0
   11.3656  -16.4624    0.0000 C   0  0  1  0  0  0  0  0  0  0  0  0
   12.0782  -15.2239    0.0000 O   0  0  0  0  0  0  0  0  0  0  0  0
   10.6506  -16.0508    0.0000 C   0  0  2  0  0  0  0  0  0  0  0  0
   11.3633  -14.8125    0.0000 C   0  0  1  0  0  0  0  0  0  0  0  0
   10.6494  -15.2260    0.0000 C   0  0  2  0  0  0  0  0  0  0  0  0
   11.3621  -13.9871    0.0000 C   0  0  0  0  0  0  0  0  0  0  0  0
   12.0763  -13.5735    0.0000 O   0  0  0  0  0  0  0  0  0  0  0  0
    9.9341  -14.8143    0.0000 O   0  0  0  0  0  0  0  0  0  0  0  0
    9.9361  -16.4633    0.0000 O   0  0  0  0  0  0  0  0  0  0  0  0
   11.3656  -17.2874    0.0000 O   0  0  0  0  0  0  0  0  0  0  0  0
   12.0804  -17.7001    0.0000 C   0  0  1  0  0  0  0  0  0  0  0  0
   12.0804  -18.5254    0.0000 C   0  0  1  0  0  0  0  0  0  0  0  0
   12.7952  -17.2874    0.0000 O   0  0  0  0  0  0  0  0  0  0  0  0
   12.7952  -18.9381    0.0000 C   0  0  1  0  0  0  0  0  0  0  0  0
   13.5099  -17.7001    0.0000 C   0  0  2  0  0  0  0  0  0  0  0  0
   13.5099  -18.5254    0.0000 C   0  0  2  0  0  0  0  0  0  0  0  0
   11.3656  -18.9381    0.0000 O   0  0  0  0  0  0  0  0  0  0  0  0
   12.7952  -19.7634    0.0000 O   0  0  0  0  0  0  0  0  0  0  0  0
   14.2248  -18.9381    0.0000 O   0  0  0  0  0  0  0  0  0  0  0  0
   14.2247  -17.2874    0.0000 C   0  0  0  0  0  0  0  0  0  0  0  0
    9.2214  -16.0507    0.0000 C   0  0  1  0  0  0  0  0  0  0  0  0
    8.5066  -16.4634    0.0000 C   0  0  1  0  0  0  0  0  0  0  0  0
    9.2214  -15.2253    0.0000 O   0  0  0  0  0  0  0  0  0  0  0  0
    7.7918  -16.0507    0.0000 C   0  0  2  0  0  0  0  0  0  0  0  0
    8.5066  -14.8127    0.0000 C   0  0  1  0  0  0  0  0  0  0  0  0
    7.7919  -15.2254    0.0000 C   0  0  1  0  0  0  0  0  0  0  0  0
    8.5066  -17.2887    0.0000 O   0  0  0  0  0  0  0  0  0  0  0  0
    7.0771  -16.4633    0.0000 O   0  0  0  0  0  0  0  0  0  0  0  0
    7.0771  -14.8127    0.0000 O   0  0  0  0  0  0  0  0  0  0  0  0
    8.5066  -13.9873    0.0000 C   0  0  0  0  0  0  0  0  0  0  0  0
    7.7918  -13.5747    0.0000 O   0  0  0  0  0  0  0  0  0  0  0  0
  8 10  1  0  0  0  0
  9  5  1  0  0  0  0
  9 10  1  0  0  0  0
 10 14  1  0  0  0  0
 13 11  1  0  0  0  0
 11 12  1  0  0  0  0
 12  9  1  0  0  0  0
 13 14  1  0  0  0  0
 14 15  1  0  0  0  0
 15 17  1  0  0  0  0
 16 13  1  0  0  0  0
 16 17  1  0  0  0  0
 17 20  1  0  0  0  0
 19 18  1  0  0  0  0
 18 16  1  0  0  0  0
 19 20  1  0  0  0  0
 20 21  1  0  0  0  0
 21 22  1  0  0  0  0
 22 23  1  0  0  0  0
 23 24  1  0  0  0  0
 24 19  1  0  0  0  0
  5 25  1  1  0  0  0
  9 26  1  6  0  0  0
 10 27  1  1  0  0  0
 14 28  1  6  0  0  0
 13 29  1  1  0  0  0
 16 30  1  6  0  0  0
 17 31  1  6  0  0  0
 18 32  1  6  0  0  0
 19 33  1  6  0  0  0
 22 34  1  6  0  0  0
  2  1  1  0  0  0  0
  1  3  1  0  0  0  0
  3  6  1  0  0  0  0
  5  4  1  0  0  0  0
  4  2  1  0  0  0  0
  5  6  1  0  0  0  0
  6  7  2  0  0  0  0
  7  8  1  0  0  0  0
  1 35  1  1  0  0  0
 37 36  1  0  0  0  0
 38 36  1  0  0  0  0
 39 37  1  0  0  0  0
 40 38  1  0  0  0  0
 41 39  1  0  0  0  0
 41 40  1  0  0  0  0
 36 35  1  1  0  0  0
 40 42  1  1  0  0  0
 42 43  1  0  0  0  0
 41 44  1  1  0  0  0
 47 48  1  0  0  0  0
 47 49  1  0  0  0  0
 48 50  1  0  0  0  0
 49 51  1  0  0  0  0
 50 52  1  0  0  0  0
 51 52  1  0  0  0  0
 48 53  1  1  0  0  0
 50 54  1  1  0  0  0
 52 55  1  6  0  0  0
 51 56  1  1  0  0  0
 47 46  1  6  0  0  0
 57 58  1  0  0  0  0
 57 59  1  0  0  0  0
 58 60  1  0  0  0  0
 59 61  1  0  0  0  0
 60 62  1  0  0  0  0
 61 62  1  0  0  0  0
 58 63  1  6  0  0  0
 60 64  1  1  0  0  0
 62 65  1  6  0  0  0
 61 66  1  1  0  0  0
 67 66  1  0  0  0  0
 57 45  1  1  0  0  0
 37 46  1  6  0  0  0
 39 45  1  1  0  0  0
M  END
> <ID>
CHEBI:9188

> <NAME>
solanine

$$$$

Marvin  07060611362D          

 78 87  0  0  1  0            999 V2000
    0.0000    0.0000    0.0000 O   0  0  0  0  0  0  0  0  0  0  0  0
   -0.7144    0.4125    0.0000 C   0  0  1  0  0  0  0  0  0  0  0  0
   -1.4289    0.0000    0.0000 C   0  0  1  0  0  0  0  0  0  0  0  0
   -0.7145    1.2376    0.0000 O   0  0  0  0  0  0  0  0  0  0  0  0
   -2.1434    0.4126    0.0000 C   0  0  2  0  0  0  0  0  0  0  0  0
   -1.4289    1.6501    0.0000 C   0  0  1  0  0  0  0  0  0  0  0  0
   -2.1434    1.2376    0.0000 C   0  0  2  0  0  0  0  0  0  0  0  0
   -1.4289   -0.8249    0.0000 O   0  0  0  0  0  0  0  0  0  0  0  0
   -2.8579    0.0001    0.0000 O   0  0  0  0  0  0  0  0  0  0  0  0
   -2.8578    1.6501    0.0000 O   0  0  0  0  0  0  0  0  0  0  0  0
   -1.4289    2.4751    0.0000 C   0  0  0  0  0  0  0  0  0  0  0  0
   -0.5950    2.9558    0.0000 O   0  0  0  0  0  0  0  0  0  0  0  0
   -2.8578    2.4750    0.0000 C   0  0  1  0  0  0  0  0  0  0  0  0
   -3.5723    2.8876    0.0000 C   0  0  1  0  0  0  0  0  0  0  0  0
   -2.1432    2.8876    0.0000 O   0  0  0  0  0  0  0  0  0  0  0  0
   -3.5722    3.7127    0.0000 C   0  0  2  0  0  0  0  0  0  0  0  0
   -2.1432    3.7125    0.0000 C   0  0  1  0  0  0  0  0  0  0  0  0
   -2.8577    4.1251    0.0000 C   0  0  1  0  0  0  0  0  0  0  0  0
   -4.2867    2.4751    0.0000 O   0  0  0  0  0  0  0  0  0  0  0  0
   -4.2866    4.1252    0.0000 O   0  0  0  0  0  0  0  0  0  0  0  0
   -2.8577    4.9501    0.0000 O   0  0  0  0  0  0  0  0  0  0  0  0
   -1.4287    4.1250    0.0000 C   0  0  0  0  0  0  0  0  0  0  0  0
   -1.4287    4.9500    0.0000 O   0  0  0  0  0  0  0  0  0  0  0  0
   -4.2866    4.9503    0.0000 C   0  0  1  0  0  0  0  0  0  0  0  0
   -5.0010    5.3627    0.0000 C   0  0  1  0  0  0  0  0  0  0  0  0
   -3.5721    5.3628    0.0000 O   0  0  0  0  0  0  0  0  0  0  0  0
   -5.0010    6.1877    0.0000 C   0  0  2  0  0  0  0  0  0  0  0  0
   -3.5720    6.1877    0.0000 C   0  0  0  0  0  0  0  0  0  0  0  0
   -4.2865    6.6002    0.0000 C   0  0  1  0  0  0  0  0  0  0  0  0
   -5.7155    4.9503    0.0000 O   0  0  0  0  0  0  0  0  0  0  0  0
   -5.7154    6.6003    0.0000 O   0  0  0  0  0  0  0  0  0  0  0  0
   -4.2864    7.4252    0.0000 O   0  0  0  0  0  0  0  0  0  0  0  0
   -5.0012    2.0626    0.0000 C   0  0  1  0  0  0  0  0  0  0  0  0
   -5.0012    1.2376    0.0000 C   0  0  1  0  0  0  0  0  0  0  0  0
   -5.7157    2.4751    0.0000 O   0  0  0  0  0  0  0  0  0  0  0  0
   -5.7158    0.8252    0.0000 C   0  0  2  0  0  0  0  0  0  0  0  0
   -6.4302    2.0627    0.0000 C   0  0  1  0  0  0  0  0  0  0  0  0
   -6.4302    1.2377    0.0000 C   0  0  1  0  0  0  0  0  0  0  0  0
   -4.2868    0.8251    0.0000 O   0  0  0  0  0  0  0  0  0  0  0  0
   -5.7158    0.0002    0.0000 O   0  0  0  0  0  0  0  0  0  0  0  0
   -7.1447    0.8252    0.0000 O   0  0  0  0  0  0  0  0  0  0  0  0
   -7.1447    2.4752    0.0000 C   0  0  0  0  0  0  0  0  0  0  0  0
   -7.8591    2.0627    0.0000 O   0  0  0  0  0  0  0  0  0  0  0  0
    3.5723    2.8875    0.0000 C   0  0  0  0  0  0  0  0  0  0  0  0
    2.8579    2.4750    0.0000 C   0  0  0  0  0  0  0  0  0  0  0  0
    3.5723    0.4125    0.0000 C   0  0  0  0  0  0  0  0  0  0  0  0
    2.8579    0.0000    0.0000 C   0  0  0  0  0  0  0  0  0  0  0  0
    1.4289    0.0000    0.0000 C   0  0  0  0  0  0  0  0  0  0  0  0
    0.7145    1.2375    0.0000 C   0  0  0  0  0  0  0  0  0  0  0  0
    1.4289    1.6500    0.0000 C   0  0  0  0  0  0  0  0  0  0  0  0
    5.0714    1.3950    0.0000 C   0  0  0  0  0  0  0  0  0  0  0  0
    3.5723    1.2375    0.0000 C   0  0  2  0  0  0  0  0  0  0  0  0
    3.5723    2.0625    0.0000 H   0  0  0  0  0  0  0  0  0  0  0  0
    2.8579    1.6500    0.0000 C   0  0  1  0  0  0  0  0  0  0  0  0
    2.8579    0.8250    0.0000 H   0  0  0  0  0  0  0  0  0  0  0  0
    4.2868    1.6500    0.0000 C   0  0  1  0  0  0  0  0  0  0  0  0
    4.2868    0.8250    0.0000 H   0  0  0  0  0  0  0  0  0  0  0  0
    5.0714    2.7299    0.0000 C   0  0  2  0  0  0  0  0  0  0  0  0
    5.0714    3.5549    0.0000 H   0  0  0  0  0  0  0  0  0  0  0  0
    5.5564    3.3974    0.0000 C   0  0  2  0  0  0  0  0  0  0  0  0
    5.5564    4.2224    0.0000 C   0  0  0  0  0  0  0  0  0  0  0  0
    2.1434    1.2375    0.0000 C   0  0  1  0  0  0  0  0  0  0  0  0
    2.1434    2.0625    0.0000 C   0  0  0  0  0  0  0  0  0  0  0  0
    7.0555    2.7299    0.0000 N   0  0  0  0  0  0  0  0  0  0  0  0
    7.7699    3.1424    0.0000 C   0  0  0  0  0  0  0  0  0  0  0  0
    7.7699    3.9674    0.0000 C   0  0  2  0  0  0  0  0  0  0  0  0
    7.0554    4.3798    0.0000 C   0  0  0  0  0  0  0  0  0  0  0  0
    6.3410    3.9673    0.0000 C   0  0  0  0  0  0  0  0  0  0  0  0
    6.3410    3.1424    0.0000 C   0  0  2  0  0  0  0  0  0  0  0  0
    8.4843    4.3799    0.0000 C   0  0  0  0  0  0  0  0  0  0  0  0
    6.3410    2.3174    0.0000 O   0  0  0  0  0  0  0  0  0  0  0  0
    4.2868    2.4750    0.0000 C   0  0  1  0  0  0  0  0  0  0  0  0
    4.2868    3.3000    0.0000 C   0  0  0  0  0  0  0  0  0  0  0  0
    0.7145    0.4125    0.0000 C   0  0  2  0  0  0  0  0  0  0  0  0
    2.1434    0.4125    0.0000 C   0  0  1  0  0  0  0  0  0  0  0  0
    2.1434   -0.4125    0.0000 H   0  0  0  0  0  0  0  0  0  0  0  0
    5.5564    2.0625    0.0000 C   0  0  1  0  0  0  0  0  0  0  0  0
    5.5564    1.2375    0.0000 H   0  0  0  0  0  0  0  0  0  0  0  0
  2  3  1  0  0  0  0
  2  4  1  0  0  0  0
  3  5  1  0  0  0  0
  4  6  1  0  0  0  0
  5  7  1  0  0  0  0
  6  7  1  0  0  0  0
  2  1  1  1  0  0  0
  3  8  1  6  0  0  0
  5  9  1  1  0  0  0
  7 10  1  1  0  0  0
  6 11  1  1  0  0  0
 12 11  1  0  0  0  0
 13 14  1  0  0  0  0
 13 15  1  0  0  0  0
 14 16  1  0  0  0  0
 15 17  1  0  0  0  0
 16 18  1  0  0  0  0
 17 18  1  0  0  0  0
 13 10  1  1  0  0  0
 14 19  1  6  0  0  0
 16 20  1  1  0  0  0
 18 21  1  6  0  0  0
 17 22  1  1  0  0  0
 23 22  1  0  0  0  0
 24 25  1  0  0  0  0
 24 26  1  0  0  0  0
 25 27  1  0  0  0  0
 26 28  1  0  0  0  0
 27 29  1  0  0  0  0
 28 29  1  0  0  0  0
 24 20  1  1  0  0  0
 25 30  1  6  0  0  0
 27 31  1  1  0  0  0
 29 32  1  6  0  0  0
 33 34  1  0  0  0  0
 33 35  1  0  0  0  0
 34 36  1  0  0  0  0
 35 37  1  0  0  0  0
 36 38  1  0  0  0  0
 37 38  1  0  0  0  0
 33 19  1  1  0  0  0
 34 39  1  6  0  0  0
 36 40  1  1  0  0  0
 38 41  1  6  0  0  0
 37 42  1  1  0  0  0
 43 42  1  0  0  0  0
 44 45  1  0  0  0  0
 72 44  1  0  0  0  0
 54 45  1  0  0  0  0
 52 46  1  0  0  0  0
 46 47  1  0  0  0  0
 47 75  1  0  0  0  0
 75 48  1  0  0  0  0
 48 74  1  0  0  0  0
 50 49  1  0  0  0  0
 49 74  1  0  0  0  0
 62 50  1  0  0  0  0
 77 51  1  0  0  0  0
 56 51  1  0  0  0  0
 52 54  1  0  0  0  0
 56 52  1  0  0  0  0
 52 53  1  1  0  0  0
 54 62  1  0  0  0  0
 54 55  1  6  0  0  0
 72 56  1  0  0  0  0
 56 57  1  6  0  0  0
 58 72  1  0  0  0  0
 58 77  1  0  0  0  0
 60 58  1  0  0  0  0
 58 59  1  6  0  0  0
 69 60  1  0  0  0  0
 60 61  1  6  0  0  0
 62 75  1  0  0  0  0
 62 63  1  1  0  0  0
 64 65  1  0  0  0  0
 69 64  1  1  0  0  0
 65 66  1  0  0  0  0
 66 67  1  0  0  0  0
 66 70  1  6  0  0  0
 67 68  1  0  0  0  0
 69 68  1  6  0  0  0
 69 71  1  0  0  0  0
 77 71  1  0  0  0  0
 72 73  1  1  0  0  0
 74  1  1  1  0  0  0
 75 76  1  6  0  0  0
 77 78  1  6  0  0  0
M  END
> <ID>
CHEBI:9630

> <NAME>
tomatine

$$$$

Ketcher 05242111592D 1   1.00000     0.00000     0

 17 19  0     0  0            999 V2000
   18.1103  -11.4177    0.0000 C   0  0  0  0  0  0  0  0  0  0  0  0
   17.2467  -11.9309    0.0000 C   0  0  0  0  0  0  0  0  0  0  0  0
   18.1062  -10.4248    0.0000 C   0  0  0  0  0  0  0  0  0  0  0  0
   18.9739  -11.9100    0.0000 C   0  0  0  0  0  0  0  0  0  0  0  0
   16.3290  -11.4428    0.0000 C   0  0  0  0  0  0  0  0  0  0  0  0
   17.2593  -12.9322    0.0000 O   0  0  0  0  0  0  0  0  0  0  0  0
   17.2300   -9.9242    0.0000 C   0  0  0  0  0  0  0  0  0  0  0  0
   18.9655   -9.9201    0.0000 O   0  0  0  0  0  0  0  0  0  0  0  0
   19.8374  -11.4094    0.0000 C   0  0  0  0  0  0  0  0  0  0  0  0
   16.3748  -10.4415    0.0000 C   0  0  0  0  0  0  0  0  0  0  0  0
   15.4279  -11.7515    0.0000 C   0  0  0  0  0  0  0  0  0  0  0  0
   16.3999  -13.4494    0.0000 C   0  0  0  0  0  0  0  0  0  0  0  0
   19.8333  -10.4165    0.0000 C   0  0  0  0  0  0  0  0  0  0  0  0
   15.4195  -10.1329    0.0000 O   0  0  0  0  0  0  0  0  0  0  0  0
   14.8354  -10.9464    0.0000 C   0  0  0  0  0  0  0  0  0  0  0  0
   20.6968   -9.9076    0.0000 C   0  0  0  0  0  0  0  0  0  0  0  0
   18.9775  -12.9100    0.0000 O   0  0  0  0  0  0  0  0  0  0  0  0
  1  2  1  0     0  0
  1  3  2  0     0  0
  1  4  1  0     0  0
  2  5  2  0     0  0
  2  6  1  0     0  0
  3  7  1  0     0  0
  3  8  1  0     0  0
  4  9  1  0     0  0
  5 10  1  0     0  0
  5 11  1  0     0  0
  6 12  1  0     0  0
  8 13  1  0     0  0
 10 14  1  0     0  0
 11 15  2  0     0  0
 13 16  1  0     0  0
  7 10  2  0     0  0
  9 13  2  0     0  0
 14 15  1  0     0  0
  4 17  2  0     0  0
M  END
> <ID>
CHEBI:10002

> <NAME>
visnagin

$$$$

Marvin  12010510542D          

  3  2  0  0  0  0            999 V2000
    0.0000    0.2750    0.0000 S   0  0  0  0  0  0  0  0  0  0  0  0
   -0.7145   -0.1375    0.0000 H   0  0  0  0  0  0  0  0  0  0  0  0
    0.7145   -0.1375    0.0000 H   0  0  0  0  0  0  0  0  0  0  0  0
  2  1  1  0  0  0  0
  3  1  1  0  0  0  0
M  END
> <ID>
CHEBI:16136

> <NAME>
hydrogen sulfide

$$$$

Ketcher 03221715302D 1   1.00000     0.00000     0

  8  7  0     0  0            999 V2000
    7.2862  -10.6737    0.0000 O   0  0  0  0  0  0  0  0  0  0  0  0
    5.5541  -10.6737    0.0000 C   0  0  0  0  0  0  0  0  0  0  0  0
    4.6880  -10.1737    0.0000 C   0  0  0  0  0  0  0  0  0  0  0  0
    4.6880   -9.1738    0.0000 N   0  0  0  0  0  0  0  0  0  0  0  0
    5.5541   -8.6738    0.0000 O   0  0  0  0  0  0  0  0  0  0  0  0
    3.8220   -8.6738    0.0000 O   0  0  0  0  0  0  0  0  0  0  0  0
    6.4202  -10.1737    0.0000 C   0  0  0  0  0  0  0  0  0  0  0  0
    6.4202   -9.1737    0.0000 O   0  0  0  0  0  0  0  0  0  0  0  0
  1  7  1  0     0  0
  7  2  1  0     0  0
  2  3  1  0     0  0
  3  4  1  0     0  0
  4  5  1  0     0  0
  4  6  2  0     0  0
  7  8  2  0     0  0
M  CHG  2   4   1   5  -1
M  END
> <ID>
CHEBI:16348

> <NAME>
3-nitropropanoic acid

$$$$

Marvin  05140621532D          

  8  8  0  0  0  0            999 V2000
    0.0000   -0.8250    0.0000 C   0  0  0  0  0  0  0  0  0  0  0  0
   -0.7145   -0.4125    0.0000 C   0  0  0  0  0  0  0  0  0  0  0  0
    0.7145   -0.4125    0.0000 C   0  0  0  0  0  0  0  0  0  0  0  0
    0.0000   -1.6500    0.0000 C   0  0  0  0  0  0  0  0  0  0  0  0
   -0.7145    0.4125    0.0000 C   0  0  0  0  0  0  0  0  0  0  0  0
    0.7145    0.4125    0.0000 C   0  0  0  0  0  0  0  0  0  0  0  0
    0.0000    0.8250    0.0000 C   0  0  0  0  0  0  0  0  0  0  0  0
    0.0000    1.6500    0.0000 O   0  0  0  0  0  0  0  0  0  0  0  0
  1  2  1  0  0  0  0
  1  3  2  0  0  0  0
  1  4  1  0  0  0  0
  2  5  2  0  0  0  0
  3  6  1  0  0  0  0
  5  7  1  0  0  0  0
  7  8  1  0  0  0  0
  6  7  2  0  0  0  0
M  END
> <ID>
CHEBI:17847

> <NAME>
p-cresol

$$$$
ChEBI
  Marvin  07150816342D          

 39 38  0  0  1  0            999 V2000
   18.3251   -8.8907    0.0000 C   0  0  2  0  0  0  0  0  0  0  0  0
   17.5001   -8.8865    0.0000 C   0  0  0  0  0  0  0  0  0  0  0  0
   18.7383   -8.1766    0.0000 C   0  0  0  0  0  0  0  0  0  0  0  0
   18.3210   -7.4574    0.0000 C   0  0  0  0  0  0  0  0  0  0  0  0
   18.7292   -6.7408    0.0000 C   0  0  0  0  0  0  0  0  0  0  0  0
   18.3126   -6.0241    0.0000 C   0  0  0  0  0  0  0  0  0  0  0  0
   18.7209   -5.3074    0.0000 N   0  0  0  0  0  0  0  0  0  0  0  0
   19.5459   -5.3074    0.0000 C   0  0  0  0  0  0  0  0  0  0  0  0
   19.9584   -4.5930    0.0000 O   0  0  0  0  0  0  0  0  0  0  0  0
   19.9584   -6.0219    0.0000 C   0  0  0  0  0  0  0  0  0  0  0  0
   18.3064   -4.5941    0.0000 O   0  0  0  0  0  0  0  0  0  0  0  0
   17.0912   -8.1700    0.0000 O   0  0  0  0  0  0  0  0  0  0  0  0
   17.0840   -9.5989    0.0000 O   0  0  0  0  0  0  0  0  0  0  0  0
   23.5826   -8.9120    0.0000 C   0  0  2  0  0  0  0  0  0  0  0  0
   24.4076   -8.9078    0.0000 C   0  0  0  0  0  0  0  0  0  0  0  0
   23.1694   -8.1979    0.0000 C   0  0  0  0  0  0  0  0  0  0  0  0
   23.5867   -7.4787    0.0000 C   0  0  0  0  0  0  0  0  0  0  0  0
   23.1785   -6.7621    0.0000 C   0  0  0  0  0  0  0  0  0  0  0  0
   23.5951   -6.0454    0.0000 C   0  0  0  0  0  0  0  0  0  0  0  0
   23.1868   -5.3287    0.0000 N   0  0  0  0  0  0  0  0  0  0  0  0
   22.3618   -5.3287    0.0000 C   0  0  0  0  0  0  0  0  0  0  0  0
   21.9493   -4.6144    0.0000 O   0  0  0  0  0  0  0  0  0  0  0  0
   21.9493   -6.0432    0.0000 C   0  0  0  0  0  0  0  0  0  0  0  0
   23.6013   -4.6155    0.0000 O   0  0  0  0  0  0  0  0  0  0  0  0
   24.8165   -8.1913    0.0000 O   0  0  0  0  0  0  0  0  0  0  0  0
   24.8237   -9.6202    0.0000 O   0  0  0  0  0  0  0  0  0  0  0  0
   18.7417   -9.6073    0.0000 N   0  0  0  0  0  0  0  0  0  0  0  0
   23.1660   -9.6286    0.0000 N   0  0  0  0  0  0  0  0  0  0  0  0
   21.6265   -9.2161    0.0000 C   0  0  0  0  0  0  0  0  0  0  0  0
   20.2812   -9.1948    0.0000 C   0  0  0  0  0  0  0  0  0  0  0  0
   19.5667   -9.6073    0.0000 C   0  0  0  0  0  0  0  0  0  0  0  0
   19.7803  -10.4042    0.0000 O   0  0  0  0  0  0  0  0  0  0  0  0
   22.3410   -9.6286    0.0000 C   0  0  0  0  0  0  0  0  0  0  0  0
   22.1274  -10.4255    0.0000 O   0  0  0  0  0  0  0  0  0  0  0  0
   20.0677  -10.8167    0.0000 O   0  0  0  0  0  0  0  0  0  0  0  0
   20.7822  -10.4042    0.0000 C   0  0  0  0  0  0  0  0  0  0  0  0
   21.3655  -10.9875    0.0000 O   0  0  0  0  0  0  0  0  0  0  0  0
   20.9957   -9.6073    0.0000 C   0  0  3  0  0  0  0  0  0  0  0  0
   21.4082  -10.3218    0.0000 O   0  0  0  0  0  0  0  0  0  0  0  0
 27  1  1  0  0  0  0
  1  2  1  6  0  0  0
  1  3  1  0  0  0  0
  2 12  2  0  0  0  0
  2 13  1  0  0  0  0
  3  4  1  0  0  0  0
  4  5  1  0  0  0  0
  5  6  1  0  0  0  0
  6  7  1  0  0  0  0
  7  8  1  0  0  0  0
  7 11  1  0  0  0  0
  8  9  2  0  0  0  0
  8 10  1  0  0  0  0
 28 14  1  0  0  0  0
 14 15  1  1  0  0  0
 14 16  1  0  0  0  0
 15 25  2  0  0  0  0
 15 26  1  0  0  0  0
 16 17  1  0  0  0  0
 17 18  1  0  0  0  0
 18 19  1  0  0  0  0
 19 20  1  0  0  0  0
 20 21  1  0  0  0  0
 20 24  1  0  0  0  0
 21 22  2  0  0  0  0
 21 23  1  0  0  0  0
 27 31  1  0  0  0  0
 28 33  1  0  0  0  0
 31 30  1  0  0  0  0
 33 29  1  0  0  0  0
 30 38  1  0  0  0  0
 29 38  1  0  0  0  0
 31 32  2  0  0  0  0
 33 34  2  0  0  0  0
 38 36  1  0  0  0  0
 36 35  2  0  0  0  0
 36 37  1  0  0  0  0
 38 39  1  0  0  0  0
M  END
> <ID>
CHEBI:18157

> <NAME>
aerobactin

$$$$

Ketcher 05282121212D 1   1.00000     0.00000     0

 32 36  0     1  0            999 V2000
   -1.3178    1.1371    0.0000 C   0  0  0  0  0  0  0  0  0  0  0  0
   -2.1838    1.6371    0.0000 C   0  0  0  0  0  0  0  0  0  0  0  0
   -1.3178    0.1371    0.0000 C   0  0  0  0  0  0  0  0  0  0  0  0
   -0.4518    1.6371    0.0000 O   0  0  0  0  0  0  0  0  0  0  0  0
   -3.0498    1.1371    0.0000 C   0  0  0  0  0  0  0  0  0  0  0  0
   -2.3918    2.6153    0.0000 C   0  0  0  0  0  0  0  0  0  0  0  0
   -0.4518   -0.3629    0.0000 C   0  0  0  0  0  0  0  0  0  0  0  0
   -2.1838   -0.3629    0.0000 C   0  0  0  0  0  0  0  0  0  0  0  0
    0.4143    1.1371    0.0000 C   0  0  0  0  0  0  0  0  0  0  0  0
   -3.7930    1.8062    0.0000 O   0  0  0  0  0  0  0  0  0  0  0  0
   -3.0498    0.1371    0.0000 C   0  0  0  0  0  0  0  0  0  0  0  0
    0.4143    0.1371    0.0000 C   0  0  0  0  0  0  0  0  0  0  0  0
   -0.4518   -1.3629    0.0000 O   0  0  0  0  0  0  0  0  0  0  0  0
    1.2802    1.6371    0.0000 C   0  0  0  0  0  0  0  0  0  0  0  0
    1.2802   -0.3629    0.0000 C   0  0  0  0  0  0  0  0  0  0  0  0
    2.1463    1.1371    0.0000 O   0  0  0  0  0  0  0  0  0  0  0  0
    2.1463    0.1371    0.0000 C   0  0  0  0  0  0  0  0  0  0  0  0
    1.2802   -1.3629    0.0000 C   0  0  0  0  0  0  0  0  0  0  0  0
    3.0124   -0.3629    0.0000 C   0  0  0  0  0  0  0  0  0  0  0  0
    2.1463   -1.8629    0.0000 C   0  0  0  0  0  0  0  0  0  0  0  0
    3.0124   -1.3629    0.0000 C   0  0  0  0  0  0  0  0  0  0  0  0
    2.1463   -2.8629    0.0000 O   0  0  0  0  0  0  0  0  0  0  0  0
    3.8784   -1.8629    0.0000 O   0  0  0  0  0  0  0  0  0  0  0  0
    1.2802   -3.3629    0.0000 C   0  0  0  0  0  0  0  0  0  0  0  0
    0.4143    2.1371    0.0000 H   0  0  0  0  0  0  0  0  0  0  0  0
    0.4143   -0.8629    0.0000 H   0  0  0  0  0  0  0  0  0  0  0  0
   -4.2522    3.2198    0.0000 C   0  0  0  0  0  0  0  0  0  0  0  0
   -5.1182    2.7199    0.0000 C   0  0  0  0  0  0  0  0  0  0  0  0
   -4.2522    4.2198    0.0000 C   0  0  0  0  0  0  0  0  0  0  0  0
   -3.3862    2.7198    0.0000 C   0  0  0  0  0  0  0  0  0  0  0  0
   -3.3862    3.7198    0.0000 H   0  0  0  0  0  0  0  0  0  0  0  0
    3.8784   -2.8629    0.0000 C   0  0  0  0  0  0  0  0  0  0  0  0
  1  2  2  0     0  0
  1  3  1  0     0  0
  1  4  1  0     0  0
  2  5  1  0     0  0
  2  6  1  0     0  0
  3  7  1  0     0  0
  3  8  2  0     0  0
  4  9  1  0     0  0
  5 10  1  0     0  0
  5 11  2  0     0  0
  6 30  1  0     0  0
  7 12  1  0     0  0
  7 13  2  0     0  0
  9 14  1  0     0  0
 12 15  1  0     0  0
 14 16  1  0     0  0
 15 17  2  0     0  0
 15 18  1  0     0  0
 17 19  1  0     0  0
 18 20  2  0     0  0
 19 21  2  0     0  0
 20 22  1  0     0  0
 21 23  1  0     0  0
 22 24  1  0     0  0
  8 11  1  0     0  0
  9 12  1  0     0  0
 10 30  1  0     0  0
 16 17  1  0     0  0
 20 21  1  0     0  0
  9 25  1  1     0  0
 12 26  1  1     0  0
 30 27  1  0     0  0
 27 28  1  0     0  0
 27 29  2  0     0  0
 30 31  1  6     0  0
 23 32  1  0     0  0
M  END
> <ID>
CHEBI:28201

> <NAME>
rotenone

$$$$

Marvin  02080815252D          

 21 23  0  0  1  0            999 V2000
   -0.7145    0.8250    0.0000 C   0  0  0  0  0  0  0  0  0  0  0  0
    0.0000    0.4125    0.0000 C   0  0  0  0  0  0  0  0  0  0  0  0
    0.0000   -0.4125    0.0000 C   0  0  0  0  0  0  0  0  0  0  0  0
    0.7145   -0.8250    0.0000 C   0  0  0  0  0  0  0  0  0  0  0  0
   -0.7145   -0.8250    0.0000 C   0  0  0  0  0  0  0  0  0  0  0  0
    0.7145    0.8250    0.0000 O   0  0  0  0  0  0  0  0  0  0  0  0
    1.4289   -0.4125    0.0000 C   0  0  0  0  0  0  0  0  0  0  0  0
   -1.4289   -0.4125    0.0000 C   0  0  0  0  0  0  0  0  0  0  0  0
    1.4289    0.4125    0.0000 C   0  0  1  0  0  0  0  0  0  0  0  0
   -1.4289    0.4125    0.0000 C   0  0  0  0  0  0  0  0  0  0  0  0
    0.7145   -1.6500    0.0000 O   0  0  0  0  0  0  0  0  0  0  0  0
   -0.7145   -1.6500    0.0000 O   0  0  0  0  0  0  0  0  0  0  0  0
    2.1434    0.8250    0.0000 C   0  0  0  0  0  0  0  0  0  0  0  0
    2.1434    1.6500    0.0000 C   0  0  0  0  0  0  0  0  0  0  0  0
    2.8579    0.4125    0.0000 C   0  0  0  0  0  0  0  0  0  0  0  0
    2.8579    2.0625    0.0000 C   0  0  0  0  0  0  0  0  0  0  0  0
    3.5724    0.8250    0.0000 C   0  0  0  0  0  0  0  0  0  0  0  0
    3.5724    1.6500    0.0000 C   0  0  0  0  0  0  0  0  0  0  0  0
    4.2868    2.0625    0.0000 O   0  0  0  0  0  0  0  0  0  0  0  0
   -2.1434    0.8250    0.0000 O   0  0  0  0  0  0  0  0  0  0  0  0
   -2.8579    0.4125    0.0000 C   0  0  0  0  0  0  0  0  0  0  0  0
  2  1  2  0  0  0  0
  3  2  1  0  0  0  0
  3  4  1  0  0  0  0
  4 11  2  0  0  0  0
  3  5  2  0  0  0  0
  5 12  1  0  0  0  0
  2  6  1  0  0  0  0
  4  7  1  0  0  0  0
  5  8  1  0  0  0  0
  6  9  1  0  0  0  0
  7  9  1  0  0  0  0
  9 13  1  6  0  0  0
  8 10  2  0  0  0  0
  1 10  1  0  0  0  0
 10 20  1  0  0  0  0
 13 14  2  0  0  0  0
 13 15  1  0  0  0  0
 14 16  1  0  0  0  0
 15 17  2  0  0  0  0
 16 18  2  0  0  0  0
 17 18  1  0  0  0  0
 18 19  1  0  0  0  0
 20 21  1  0  0  0  0
M  END
> <ID>
CHEBI:28927

> <NAME>
sakuranetin

$$$$

Ketcher 11281616412D 1   1.00000     0.00000     0

 50 49  0     1  0            999 V2000
    4.6407  -28.3546    0.0000 C   0  0  0  0  0  0  0  0  0  0  0  0
    5.4983  -27.8595    0.0000 C   0  0  0  0  0  0  0  0  0  0  0  0
    6.3560  -28.3546    0.0000 C   0  0  0  0  0  0  0  0  0  0  0  0
    7.2137  -27.8595    0.0000 C   0  0  0  0  0  0  0  0  0  0  0  0
   10.6443  -27.8595    0.0000 C   0  0  0  0  0  0  0  0  0  0  0  0
   12.3596  -27.8595    0.0000 C   0  0  0  0  0  0  0  0  0  0  0  0
   14.0748  -27.8595    0.0000 C   0  0  0  0  0  0  0  0  0  0  0  0
   14.9325  -28.3546    0.0000 C   0  0  0  0  0  0  0  0  0  0  0  0
   15.7902  -27.8595    0.0000 C   0  0  0  0  0  0  0  0  0  0  0  0
   16.6477  -28.3546    0.0000 C   0  0  0  0  0  0  0  0  0  0  0  0
   18.3631  -28.3546    0.0000 C   0  0  0  0  0  0  0  0  0  0  0  0
   20.9361  -27.8595    0.0000 C   0  0  0  0  0  0  0  0  0  0  0  0
    8.0712  -28.3546    0.0000 C   0  0  0  0  0  0  0  0  0  0  0  0
    8.0712  -29.3450    0.0000 C   0  0  0  0  0  0  0  0  0  0  0  0
    8.9289  -27.8595    0.0000 C   0  0  0  0  0  0  0  0  0  0  0  0
    8.9289  -26.8692    0.0000 O   0  0  0  0  0  0  0  0  0  0  0  0
    9.7866  -25.3837    0.0000 O   0  0  0  0  0  0  0  0  0  0  0  0
    9.7866  -26.3740    0.0000 C   0  0  0  0  0  0  0  0  0  0  0  0
   10.6443  -26.8692    0.0000 C   0  0  0  0  0  0  0  0  0  0  0  0
   11.5019  -26.3740    0.0000 C   0  0  0  0  0  0  0  0  0  0  0  0
   10.6443  -24.8885    0.0000 O   0  0  0  0  0  0  0  0  0  0  0  0
   11.5019  -25.3837    0.0000 C   0  0  0  0  0  0  0  0  0  0  0  0
   12.3596  -24.8885    0.0000 O   0  0  0  0  0  0  0  0  0  0  0  0
   12.3596  -26.8692    0.0000 C   0  0  0  0  0  0  0  0  0  0  0  0
   14.0748  -26.8692    0.0000 O   0  0  0  0  0  0  0  0  0  0  0  0
   13.2172  -26.3740    0.0000 C   0  0  0  0  0  0  0  0  0  0  0  0
   13.2172  -25.3837    0.0000 O   0  0  0  0  0  0  0  0  0  0  0  0
   11.5019  -28.3546    0.0000 C   0  0  0  0  0  0  0  0  0  0  0  0
   11.5019  -29.3450    0.0000 C   0  0  0  0  0  0  0  0  0  0  0  0
    9.7866  -28.3546    0.0000 C   0  0  0  0  0  0  0  0  0  0  0  0
    9.7866  -29.8189    0.0000 O   0  0  0  0  0  0  0  0  0  0  0  0
   11.5019  -29.8189    0.0000 C   0  0  0  0  0  0  0  0  0  0  0  0
   13.2172  -29.8189    0.0000 C   0  0  0  0  0  0  0  0  0  0  0  0
   10.6443  -30.3141    0.0000 C   0  0  0  0  0  0  0  0  0  0  0  0
   10.6443  -31.3044    0.0000 O   0  0  0  0  0  0  0  0  0  0  0  0
   12.3596  -30.3141    0.0000 C   0  0  0  0  0  0  0  0  0  0  0  0
   11.5019  -31.7996    0.0000 O   0  0  0  0  0  0  0  0  0  0  0  0
   12.3596  -31.3044    0.0000 C   0  0  0  0  0  0  0  0  0  0  0  0
   13.2172  -31.7996    0.0000 O   0  0  0  0  0  0  0  0  0  0  0  0
   14.0748  -31.3044    0.0000 O   0  0  0  0  0  0  0  0  0  0  0  0
   14.0748  -30.3141    0.0000 C   0  0  0  0  0  0  0  0  0  0  0  0
   14.9325  -29.8189    0.0000 O   0  0  0  0  0  0  0  0  0  0  0  0
   20.0784  -28.3546    0.0000 C   0  0  0  0  0  0  0  0  0  0  0  0
   20.0784  -29.3450    0.0000 N   0  0  0  0  0  0  0  0  0  0  0  0
   19.2208  -27.8595    0.0000 C   0  0  0  0  0  0  0  0  0  0  0  0
   19.2208  -26.8692    0.0000 O   0  0  0  0  0  0  0  0  0  0  0  0
   17.5054  -27.8595    0.0000 C   0  0  0  0  0  0  0  0  0  0  0  0
   17.5054  -26.8692    0.0000 O   0  0  0  0  0  0  0  0  0  0  0  0
   13.2172  -28.3546    0.0000 C   0  0  0  0  0  0  0  0  0  0  0  0
   13.2172  -29.3450    0.0000 O   0  0  0  0  0  0  0  0  0  0  0  0
  1  2  1  0     0  0
  2  3  1  0     0  0
  3  4  1  0     0  0
  4 13  1  0     0  0
 13 15  1  0     0  0
 15 30  1  0     0  0
 30  5  1  0     0  0
  5 28  1  0     0  0
 28  6  1  0     0  0
  6 49  1  0     0  0
 49  7  1  0     0  0
  7  8  1  0     0  0
  8  9  1  0     0  0
  9 10  1  0     0  0
 10 47  1  0     0  0
 47 11  1  0     0  0
 11 45  1  0     0  0
 45 43  1  0     0  0
 43 12  1  0     0  0
 13 14  1  6     0  0
 15 16  1  1     0  0
 16 18  1  0     0  0
 18 17  2  0     0  0
 18 19  1  0     0  0
 19 20  1  0     0  0
 20 24  1  0     0  0
 20 22  1  6     0  0
 22 21  2  0     0  0
 22 23  1  0     0  0
 24 26  1  0     0  0
 26 25  1  0     0  0
 26 27  2  0     0  0
 28 29  1  6     0  0
 30 31  1  6     0  0
 31 34  1  0     0  0
 34 32  1  0     0  0
 32 36  1  0     0  0
 36 33  1  0     0  0
 33 41  1  0     0  0
 34 35  2  0     0  0
 36 38  1  1     0  0
 38 37  2  0     0  0
 38 39  1  0     0  0
 41 40  2  0     0  0
 41 42  1  0     0  0
 43 44  1  6     0  0
 45 46  1  6     0  0
 47 48  1  1     0  0
 49 50  1  1     0  0
M  END
> <ID>
CHEBI:38221

> <NAME>
fumonisin B1

$$$$

Marvin  05030712462D          

 49 48  0  0  1  0            999 V2000
    3.8660  -23.6210    0.0000 C   0  0  0  0  0  0  0  0  0  0  0  0
    4.5804  -23.2085    0.0000 C   0  0  0  0  0  0  0  0  0  0  0  0
    5.2949  -23.6210    0.0000 C   0  0  0  0  0  0  0  0  0  0  0  0
    6.0094  -23.2085    0.0000 C   0  0  0  0  0  0  0  0  0  0  0  0
    8.8673  -23.2085    0.0000 C   0  0  0  0  0  0  0  0  0  0  0  0
   10.2962  -23.2085    0.0000 C   0  0  0  0  0  0  0  0  0  0  0  0
   11.7251  -23.2085    0.0000 C   0  0  0  0  0  0  0  0  0  0  0  0
   12.4396  -23.6210    0.0000 C   0  0  0  0  0  0  0  0  0  0  0  0
   13.1541  -23.2085    0.0000 C   0  0  0  0  0  0  0  0  0  0  0  0
   13.8685  -23.6210    0.0000 C   0  0  0  0  0  0  0  0  0  0  0  0
   15.2975  -23.6210    0.0000 C   0  0  0  0  0  0  0  0  0  0  0  0
   17.4409  -23.2085    0.0000 C   0  0  0  0  0  0  0  0  0  0  0  0
    6.7238  -23.6210    0.0000 C   0  0  1  0  0  0  0  0  0  0  0  0
    6.7238  -24.4460    0.0000 C   0  0  0  0  0  0  0  0  0  0  0  0
    7.4383  -23.2085    0.0000 C   0  0  1  0  0  0  0  0  0  0  0  0
    7.4383  -22.3835    0.0000 O   0  0  0  0  0  0  0  0  0  0  0  0
    8.1528  -21.1460    0.0000 O   0  0  0  0  0  0  0  0  0  0  0  0
    8.1528  -21.9710    0.0000 C   0  0  0  0  0  0  0  0  0  0  0  0
    8.8673  -22.3835    0.0000 C   0  0  0  0  0  0  0  0  0  0  0  0
    9.5817  -21.9710    0.0000 C   0  0  2  0  0  0  0  0  0  0  0  0
    8.8673  -20.7335    0.0000 O   0  0  0  0  0  0  0  0  0  0  0  0
    9.5817  -21.1460    0.0000 C   0  0  0  0  0  0  0  0  0  0  0  0
   10.2962  -20.7335    0.0000 O   0  0  0  0  0  0  0  0  0  0  0  0
   10.2962  -22.3835    0.0000 C   0  0  0  0  0  0  0  0  0  0  0  0
   11.7251  -22.3835    0.0000 O   0  0  0  0  0  0  0  0  0  0  0  0
   11.0107  -21.9710    0.0000 C   0  0  0  0  0  0  0  0  0  0  0  0
   11.0107  -21.1460    0.0000 O   0  0  0  0  0  0  0  0  0  0  0  0
    9.5817  -23.6210    0.0000 C   0  0  2  0  0  0  0  0  0  0  0  0
    9.5817  -24.4460    0.0000 C   0  0  0  0  0  0  0  0  0  0  0  0
    8.1528  -23.6210    0.0000 C   0  0  1  0  0  0  0  0  0  0  0  0
    8.1528  -24.8408    0.0000 O   0  0  0  0  0  0  0  0  0  0  0  0
    9.5817  -24.8408    0.0000 C   0  0  0  0  0  0  0  0  0  0  0  0
   11.0107  -24.8408    0.0000 C   0  0  0  0  0  0  0  0  0  0  0  0
    8.8673  -25.2533    0.0000 C   0  0  0  0  0  0  0  0  0  0  0  0
    8.8673  -26.0783    0.0000 O   0  0  0  0  0  0  0  0  0  0  0  0
   10.2962  -25.2533    0.0000 C   0  0  1  0  0  0  0  0  0  0  0  0
    9.5817  -26.4908    0.0000 O   0  0  0  0  0  0  0  0  0  0  0  0
   10.2962  -26.0783    0.0000 C   0  0  0  0  0  0  0  0  0  0  0  0
   11.0107  -26.4908    0.0000 O   0  0  0  0  0  0  0  0  0  0  0  0
   11.7251  -26.0783    0.0000 O   0  0  0  0  0  0  0  0  0  0  0  0
   11.7251  -25.2533    0.0000 C   0  0  0  0  0  0  0  0  0  0  0  0
   12.4396  -24.8408    0.0000 O   0  0  0  0  0  0  0  0  0  0  0  0
   16.7264  -23.6210    0.0000 C   0  0  2  0  0  0  0  0  0  0  0  0
   16.7264  -24.4460    0.0000 N   0  0  0  0  0  0  0  0  0  0  0  0
   16.0120  -23.2085    0.0000 C   0  0  1  0  0  0  0  0  0  0  0  0
   16.0120  -22.3835    0.0000 O   0  0  0  0  0  0  0  0  0  0  0  0
   14.5830  -23.2085    0.0000 C   0  0  2  0  0  0  0  0  0  0  0  0
   14.5830  -22.3835    0.0000 O   0  0  0  0  0  0  0  0  0  0  0  0
   11.0107  -23.6210    0.0000 C   0  0  0  0  0  0  0  0  0  0  0  0
  1  2  1  0  0  0  0
  2  3  1  0  0  0  0
  3  4  1  0  0  0  0
  4 13  1  0  0  0  0
 13 15  1  0  0  0  0
 15 30  1  0  0  0  0
 30  5  1  0  0  0  0
  5 28  1  0  0  0  0
 28  6  1  0  0  0  0
  6 49  1  0  0  0  0
 49  7  1  0  0  0  0
  7  8  1  0  0  0  0
  8  9  1  0  0  0  0
  9 10  1  0  0  0  0
 10 47  1  0  0  0  0
 47 11  1  0  0  0  0
 11 45  1  0  0  0  0
 45 43  1  0  0  0  0
 43 12  1  0  0  0  0
 13 14  1  6  0  0  0
 15 16  1  1  0  0  0
 16 18  1  0  0  0  0
 18 17  2  0  0  0  0
 18 19  1  0  0  0  0
 19 20  1  0  0  0  0
 20 24  1  0  0  0  0
 20 22  1  6  0  0  0
 22 21  2  0  0  0  0
 22 23  1  0  0  0  0
 24 26  1  0  0  0  0
 26 25  1  0  0  0  0
 26 27  2  0  0  0  0
 28 29  1  6  0  0  0
 30 31  1  6  0  0  0
 31 34  1  0  0  0  0
 34 32  1  0  0  0  0
 32 36  1  0  0  0  0
 36 33  1  0  0  0  0
 33 41  1  0  0  0  0
 34 35  2  0  0  0  0
 36 38  1  1  0  0  0
 38 37  2  0  0  0  0
 38 39  1  0  0  0  0
 41 40  2  0  0  0  0
 41 42  1  0  0  0  0
 43 44  1  6  0  0  0
 45 46  1  6  0  0  0
 47 48  1  1  0  0  0
M  END
> <ID>
CHEBI:38225

> <NAME>
fumonisin B2

$$$$

Marvin  12190714312D          

 32 34  0  0  1  0            999 V2000
   -1.4596    0.8351    0.0000 C   0  0  0  0  0  0  0  0  0  0  0  0
   -1.9741    0.1901    0.0000 N   0  0  0  0  0  0  0  0  0  0  0  0
   -0.3039   -0.6143    0.0000 N   0  0  0  0  0  0  0  0  0  0  0  0
   -1.7905   -0.6142    0.0000 C   0  0  1  0  0  0  0  0  0  0  0  0
    1.5499   -0.6143    0.0000 N   0  0  0  0  0  0  0  0  0  0  0  0
   -0.1203    0.1901    0.0000 N   0  0  0  0  0  0  0  0  0  0  0  0
    0.6230    0.5480    0.0000 C   0  0  0  0  0  0  0  0  0  0  0  0
    1.0354   -1.2593    0.0000 C   0  0  0  0  0  0  0  0  0  0  0  0
   -1.0472   -0.9722    0.0000 C   0  0  0  0  0  0  0  0  0  0  0  0
   -0.6347    0.8351    0.0000 C   0  0  1  0  0  0  0  0  0  0  0  0
    0.2104   -1.2593    0.0000 C   0  0  2  0  0  0  0  0  0  0  0  0
   -2.4355   -1.1286    0.0000 C   0  0  0  0  0  0  0  0  0  0  0  0
    2.0744    0.6132    0.0000 C   0  0  0  0  0  0  0  0  0  0  0  0
    2.3716   -0.6882    0.0000 C   0  0  0  0  0  0  0  0  0  0  0  0
    2.6958    0.0705    0.0000 C   0  0  0  0  0  0  0  0  0  0  0  0
    0.6230    1.3731    0.0000 O   0  0  0  0  0  0  0  0  0  0  0  0
    1.3934   -2.0025    0.0000 O   0  0  0  0  0  0  0  0  0  0  0  0
   -1.8176    1.5784    0.0000 O   0  0  0  0  0  0  0  0  0  0  0  0
   -1.0472   -1.7971    0.0000 O   0  0  0  0  0  0  0  0  0  0  0  0
   -0.2767    1.5784    0.0000 C   0  0  0  0  0  0  0  0  0  0  0  0
   -0.1475   -2.0025    0.0000 C   0  0  0  0  0  0  0  0  0  0  0  0
    0.2650   -2.7170    0.0000 C   0  0  0  0  0  0  0  0  0  0  0  0
   -0.1476   -3.4315    0.0000 C   0  0  0  0  0  0  0  0  0  0  0  0
    0.2649   -4.1459    0.0000 C   0  0  0  0  0  0  0  0  0  0  0  0
   -0.1476   -4.8604    0.0000 C   0  0  0  0  0  0  0  0  0  0  0  0
    0.2648   -5.5749    0.0000 C   0  0  0  0  0  0  0  0  0  0  0  0
   -0.8621   -6.7017    0.0000 C   0  0  0  0  0  0  0  0  0  0  0  0
   -0.1477   -6.2893    0.0000 C   0  0  3  0  0  0  0  0  0  0  0  0
   -0.1477   -7.1143    0.0000 O   0  0  0  0  0  0  0  0  0  0  0  0
    1.0898   -5.5749    0.0000 O   0  0  0  0  0  0  0  0  0  0  0  0
    1.3663    0.1900    0.0000 C   0  0  1  0  0  0  0  0  0  0  0  0
    1.3663    1.0150    0.0000 H   0  0  0  0  0  0  0  0  0  0  0  0
  1 18  2  0  0  0  0
  2  1  1  0  0  0  0
  2  4  1  0  0  0  0
  4 12  1  1  0  0  0
  5 14  1  0  0  0  0
  6  7  1  0  0  0  0
  7 16  2  0  0  0  0
  8  5  1  0  0  0  0
  8 17  2  0  0  0  0
  4  9  1  0  0  0  0
  9  3  1  0  0  0  0
  9 19  2  0  0  0  0
 10  1  1  0  0  0  0
 10  6  1  0  0  0  0
 10 20  1  6  0  0  0
 11  8  1  0  0  0  0
  3 11  1  0  0  0  0
 11 21  1  6  0  0  0
 31  5  1  0  0  0  0
 31  7  1  0  0  0  0
 31 13  1  0  0  0  0
 13 15  1  0  0  0  0
 14 15  1  0  0  0  0
 21 22  1  0  0  0  0
 22 23  1  0  0  0  0
 23 24  1  0  0  0  0
 24 25  1  0  0  0  0
 25 26  1  0  0  0  0
 26 30  2  0  0  0  0
 26 28  1  0  0  0  0
 28 27  1  0  0  0  0
 27 29  1  0  0  0  0
 28 29  1  0  0  0  0
 31 32  1  6  0  0  0
M  END
> <ID>
CHEBI:48028

> <NAME>
HC toxin

$$$$

Marvin  03151309512D          

 39 44  0  0  1  0            999 V2000
    9.7396   -5.2034    0.0000 N   0  0  0  0  0  0  0  0  0  0  0  0
    9.7396   -6.0283    0.0000 C   0  0  2  0  0  0  0  0  0  0  0  0
    9.0251   -4.7909    0.0000 C   0  0  0  0  0  0  0  0  0  0  0  0
    9.0251   -6.4408    0.0000 C   0  0  0  0  0  0  0  0  0  0  0  0
    8.3106   -5.2034    0.0000 C   0  0  1  0  0  0  0  0  0  0  0  0
    8.3106   -6.0283    0.0000 N   0  0  0  0  0  0  0  0  0  0  0  0
   10.5242   -4.9485    0.0000 C   0  0  0  0  0  0  0  0  0  0  0  0
   11.0091   -5.6159    0.0000 C   0  0  0  0  0  0  0  0  0  0  0  0
   10.5243   -6.2833    0.0000 C   0  0  0  0  0  0  0  0  0  0  0  0
    7.5962   -4.7909    0.0000 C   0  0  2  0  0  0  0  0  0  0  0  0
    6.8817   -5.2034    0.0000 C   0  0  0  0  0  0  0  0  0  0  0  0
    6.1280   -4.8678    0.0000 C   0  0  0  0  0  0  0  0  0  0  0  0
    5.5760   -5.4810    0.0000 C   0  0  0  0  0  0  0  0  0  0  0  0
    5.8938   -4.0768    0.0000 C   0  0  0  0  0  0  0  0  0  0  0  0
    5.0916   -3.8841    0.0000 C   0  0  0  0  0  0  0  0  0  0  0  0
    4.5236   -4.4825    0.0000 C   0  0  0  0  0  0  0  0  0  0  0  0
    4.7579   -5.2735    0.0000 C   0  0  0  0  0  0  0  0  0  0  0  0
    9.0251   -3.9659    0.0000 O   0  0  0  0  0  0  0  0  0  0  0  0
    9.0251   -7.2658    0.0000 O   0  0  0  0  0  0  0  0  0  0  0  0
    9.8258   -6.8488    0.0000 H   0  0  0  0  0  0  0  0  0  0  0  0
    3.7267   -4.2690    0.0000 O   0  0  0  0  0  0  0  0  0  0  0  0
    7.5884   -6.3944    0.0000 C   0  0  1  0  0  0  0  0  0  0  0  0
    3.1433   -4.8523    0.0000 C   0  0  0  0  0  0  0  0  0  0  0  0
    7.5962   -3.9659    0.0000 O   0  0  0  0  0  0  0  0  0  0  0  0
    8.3106   -4.3784    0.0000 O   0  0  0  0  0  0  0  0  0  0  0  0
    4.8395   -6.9099    0.0000 C   0  0  0  0  0  0  0  0  0  0  0  0
    4.4270   -7.6243    0.0000 C   0  0  0  0  0  0  0  0  0  0  0  0
    3.6020   -7.6243    0.0000 C   0  0  0  0  0  0  0  0  0  0  0  0
    4.6405   -8.4212    0.0000 C   0  0  0  0  0  0  0  0  0  0  0  0
    8.3069   -6.6498    0.0000 H   0  0  0  0  0  0  0  0  0  0  0  0
    6.0770   -6.1954    0.0000 N   0  0  0  0  0  0  0  0  0  0  0  0
    5.6645   -6.9099    0.0000 C   0  0  2  0  0  0  0  0  0  0  0  0
    5.8780   -7.7068    0.0000 O   0  0  0  0  0  0  0  0  0  0  0  0
    6.5925   -8.1193    0.0000 O   0  0  0  0  0  0  0  0  0  0  0  0
    7.3894   -7.9057    0.0000 C   0  0  0  0  0  0  0  0  0  0  0  0
    7.8019   -7.1913    0.0000 C   0  0  0  0  0  0  0  0  0  0  0  0
    6.8839   -6.0238    0.0000 C   0  0  0  0  0  0  0  0  0  0  0  0
    8.1038   -8.3182    0.0000 C   0  0  0  0  0  0  0  0  0  0  0  0
    7.3894   -8.7307    0.0000 C   0  0  0  0  0  0  0  0  0  0  0  0
  3  1  1  0  0  0  0
  4  2  1  0  0  0  0
  5  3  1  0  0  0  0
  6  4  1  0  0  0  0
  7  1  1  0  0  0  0
  2  1  1  0  0  0  0
  8  7  1  0  0  0  0
  9  2  1  0  0  0  0
  9  8  1  0  0  0  0
 12 11  1  0  0  0  0
 13 31  1  0  0  0  0
 12 14  2  0  0  0  0
 15 14  1  0  0  0  0
 13 12  1  0  0  0  0
 16 15  2  0  0  0  0
 17 13  2  0  0  0  0
 17 16  1  0  0  0  0
  3 18  2  0  0  0  0
  4 19  2  0  0  0  0
  2 20  1  6  0  0  0
 16 21  1  0  0  0  0
 10 11  1  0  0  0  0
 10  5  1  0  0  0  0
  6  5  1  0  0  0  0
 22  6  1  0  0  0  0
 37 11  2  0  0  0  0
 21 23  1  0  0  0  0
 10 24  1  6  0  0  0
  5 25  1  6  0  0  0
 32 26  1  6  0  0  0
 26 27  2  0  0  0  0
 27 28  1  0  0  0  0
 27 29  1  0  0  0  0
 22 30  1  6  0  0  0
 32 33  1  0  0  0  0
 33 34  1  0  0  0  0
 34 35  1  0  0  0  0
 35 36  1  0  0  0  0
 36 22  1  0  0  0  0
 31 32  1  0  0  0  0
 37 31  1  0  0  0  0
 37 22  1  0  0  0  0
 35 38  1  0  0  0  0
 35 39  1  0  0  0  0
M  END
> <ID>
CHEBI:72765

> <NAME>
verruculogen

$$$$

Ketcher 09072114462D 1   1.00000     0.00000     0

 35 34  0     0  0            999 V2000
    3.5009   -8.3142    0.0000 C   0  0  0  0  0  0  0  0  0  0  0  0
    2.6387   -8.8130    0.0000 C   0  0  0  0  0  0  0  0  0  0  0  0
    3.5009   -7.3109    0.0000 C   0  0  0  0  0  0  0  0  0  0  0  0
    4.3685   -8.8130    0.0000 C   0  0  0  0  0  0  0  0  0  0  0  0
    1.7708   -8.3198    0.0000 C   0  0  0  0  0  0  0  0  0  0  0  0
    4.3685   -6.8120    0.0000 C   0  0  0  0  0  0  0  0  0  0  0  0
    4.3685   -9.8110    0.0000 C   0  0  0  0  0  0  0  0  0  0  0  0
    0.9088   -8.8186    0.0000 C   0  0  0  0  0  0  0  0  0  0  0  0
    4.3632   -5.8086    0.0000 O   0  0  0  0  0  0  0  0  0  0  0  0
    5.2364   -7.3109    0.0000 O   0  0  0  0  0  0  0  0  0  0  0  0
    3.5009  -10.3099    0.0000 O   0  0  0  0  0  0  0  0  0  0  0  0
    5.2364  -10.3099    0.0000 O   0  0  0  0  0  0  0  0  0  0  0  0
    0.0409   -8.3250    0.0000 C   0  0  0  0  0  0  0  0  0  0  0  0
    0.9088   -9.8219    0.0000 C   0  0  0  0  0  0  0  0  0  0  0  0
   -0.8212   -8.8241    0.0000 C   0  0  0  0  0  0  0  0  0  0  0  0
   -1.6892   -8.3305    0.0000 C   0  0  0  0  0  0  0  0  0  0  0  0
   -2.5513   -8.8293    0.0000 C   0  0  0  0  0  0  0  0  0  0  0  0
   -3.4220   -8.3376    0.0000 C   0  0  0  0  0  0  0  0  0  0  0  0
   -3.4223   -7.3388    0.0000 C   0  0  0  0  0  0  0  0  0  0  0  0
   -2.5538   -6.8414    0.0000 C   0  0  0  0  0  0  0  0  0  0  0  0
   -2.5542   -5.8426    0.0000 C   0  0  0  0  0  0  0  0  0  0  0  0
   -1.6892   -5.3427    0.0000 C   0  0  0  0  0  0  0  0  0  0  0  0
   -0.8268   -5.8468    0.0000 C   0  0  0  0  0  0  0  0  0  0  0  0
    0.0408   -5.3368    0.0000 C   0  0  0  0  0  0  0  0  0  0  0  0
    0.9032   -5.8409    0.0000 C   0  0  0  0  0  0  0  0  0  0  0  0
    0.0348   -4.3387    0.0000 O   0  0  0  0  0  0  0  0  0  0  0  0
    1.7711   -5.3460    0.0000 C   0  0  0  0  0  0  0  0  0  0  0  0
   -0.8393   -3.8449    0.0000 C   0  0  0  0  0  0  0  0  0  0  0  0
    1.7716   -4.3443    0.0000 C   0  0  0  0  0  0  0  0  0  0  0  0
    2.6474   -3.8546    0.0000 C   0  0  0  0  0  0  0  0  0  0  0  0
    2.6480   -2.8528    0.0000 C   0  0  0  0  0  0  0  0  0  0  0  0
    3.5035   -4.3675    0.0000 C   0  0  0  0  0  0  0  0  0  0  0  0
    3.5241   -2.3631    0.0000 O   0  0  0  0  0  0  0  0  0  0  0  0
    1.7866   -2.3492    0.0000 O   0  0  0  0  0  0  0  0  0  0  0  0
    0.8979   -6.8399    0.0000 C   0  0  0  0  0  0  0  0  0  0  0  0
  1  2  1  0     0  0
  1  3  1  0     0  0
  1  4  2  0     0  0
  2  5  2  0     0  0
  3  6  1  0     0  0
  4  7  1  0     0  0
  5  8  1  0     0  0
  6  9  2  0     0  0
  6 10  1  0     0  0
  7 11  1  0     0  0
  7 12  2  0     0  0
  8 13  1  0     0  0
  8 14  1  1     0  0
 13 15  1  0     0  0
 15 16  2  0     0  0
 16 17  1  0     0  0
 17 18  1  0     0  0
 18 19  1  0     0  0
 19 20  2  0     0  0
 20 21  1  0     0  0
 22 23  1  0     0  0
 23 24  1  0     0  0
 24 25  1  0     0  0
 24 26  1  1     0  0
 26 28  1  0     0  0
 27 29  1  0     0  0
 29 30  2  0     0  0
 30 31  1  0     0  0
 30 32  1  0     0  0
 31 33  1  0     0  0
 31 34  2  0     0  0
 21 22  2  0     0  0
 25 27  2  0     0  0
 25 35  1  0     0  0
M  END
> <ID>
CHEBI:77742

> <NAME>
bongkrekic acid

$$$$

Mrv0541 03181417072D          

 85 86  0  0  0  0            999 V2000
    0.8922    2.0143    0.0000 C   0  0  0  0  0  0  0  0  0  0  0  0
    1.6067    1.6018    0.0000 C   0  0  2  0  0  0  0  0  0  0  0  0
    2.3212    2.0143    0.0000 C   0  0  0  0  0  0  0  0  0  0  0  0
    3.0357    1.6018    0.0000 C   0  0  0  0  0  0  0  0  0  0  0  0
    3.7501    2.0143    0.0000 N   0  0  0  0  0  0  0  0  0  0  0  0
    4.4646    1.6018    0.0000 C   0  0  2  0  0  0  0  0  0  0  0  0
    5.1791    2.0143    0.0000 C   0  0  0  0  0  0  0  0  0  0  0  0
    5.8936    1.6018    0.0000 N   0  0  0  0  0  0  0  0  0  0  0  0
    6.6081    2.0143    0.0000 C   0  0  1  0  0  0  0  0  0  0  0  0
    7.3225    1.6018    0.0000 C   0  0  0  0  0  0  0  0  0  0  0  0
    8.0370    2.0143    0.0000 N   0  0  0  0  0  0  0  0  0  0  0  0
    8.7515    1.6018    0.0000 C   0  0  1  0  0  0  0  0  0  0  0  0
    1.6067    0.7769    0.0000 O   0  0  0  0  0  0  0  0  0  0  0  0
    3.0357    0.7768    0.0000 O   0  0  0  0  0  0  0  0  0  0  0  0
    5.1791    2.8394    0.0000 O   0  0  0  0  0  0  0  0  0  0  0  0
    6.6081    2.8392    0.0000 C   0  0  0  0  0  0  0  0  0  0  0  0
    7.3360    3.2596    0.0000 O   0  0  0  0  0  0  0  0  0  0  0  0
    9.4805    2.0229    0.0000 C   0  0  0  0  0  0  0  0  0  0  0  0
    8.7516    0.7770    0.0000 C   0  0  0  0  0  0  0  0  0  0  0  0
    9.4802    2.8393    0.0000 C   0  0  0  0  0  0  0  0  0  0  0  0
   10.1886    3.2486    0.0000 N   0  0  0  0  0  0  0  0  0  0  0  0
    9.4807    0.3560    0.0000 O   0  0  0  0  0  0  0  0  0  0  0  0
    8.0517    0.3727    0.0000 N   0  0  0  0  0  0  0  0  0  0  0  0
    8.0517   -0.4605    0.0000 C   0  0  2  0  0  0  0  0  0  0  0  0
    8.7797   -0.8810    0.0000 C   0  0  0  0  0  0  0  0  0  0  0  0
    7.3508   -0.8653    0.0000 C   0  0  0  0  0  0  0  0  0  0  0  0
    6.6530   -0.4625    0.0000 O   0  0  0  0  0  0  0  0  0  0  0  0
    7.3507   -1.6981    0.0000 N   0  0  0  0  0  0  0  0  0  0  0  0
    9.4910   -0.4704    0.0000 C   0  0  0  0  0  0  0  0  0  0  0  0
   10.1872   -0.8725    0.0000 N   0  0  0  0  0  0  0  0  0  0  0  0
    8.0785   -2.1184    0.0000 C   0  0  1  0  0  0  0  0  0  0  0  0
    8.7898   -1.7079    0.0000 C   0  0  0  0  0  0  0  0  0  0  0  0
    8.0783   -2.9357    0.0000 C   0  0  0  0  0  0  0  0  0  0  0  0
    9.4859   -2.1100    0.0000 C   0  0  0  0  0  0  0  0  0  0  0  0
   10.1899   -1.7036    0.0000 C   0  0  0  0  0  0  0  0  0  0  0  0
   10.8898   -2.1078    0.0000 N   0  0  0  0  0  0  0  0  0  0  0  0
   11.5918   -1.7025    0.0000 C   0  0  0  0  0  0  0  0  0  0  0  0
   12.2925   -2.1073    0.0000 N   0  0  0  0  0  0  0  0  0  0  0  0
   11.5919   -0.8734    0.0000 N   0  0  0  0  0  0  0  0  0  0  0  0
    7.3573   -3.3517    0.0000 N   0  0  0  0  0  0  0  0  0  0  0  0
    8.7863   -3.3447    0.0000 O   0  0  0  0  0  0  0  0  0  0  0  0
    7.3572   -4.1732    0.0000 C   0  0  2  0  0  0  0  0  0  0  0  0
    6.6511   -4.5807    0.0000 C   0  0  0  0  0  0  0  0  0  0  0  0
    8.0800   -4.5908    0.0000 C   0  0  0  0  0  0  0  0  0  0  0  0
    8.0800   -5.4158    0.0000 C   0  0  0  0  0  0  0  0  0  0  0  0
    7.3602   -5.8315    0.0000 C   0  0  0  0  0  0  0  0  0  0  0  0
    7.3602   -6.6566    0.0000 C   0  0  0  0  0  0  0  0  0  0  0  0
    8.0747   -7.0690    0.0000 C   0  0  0  0  0  0  0  0  0  0  0  0
    8.7947   -6.6533    0.0000 C   0  0  0  0  0  0  0  0  0  0  0  0
    8.7946   -5.8283    0.0000 C   0  0  0  0  0  0  0  0  0  0  0  0
    6.6509   -5.4106    0.0000 O   0  0  0  0  0  0  0  0  0  0  0  0
    4.4646    0.7770    0.0000 C   0  0  0  0  0  0  0  0  0  0  0  0
    3.7624    0.3714    0.0000 O   0  0  0  0  0  0  0  0  0  0  0  0
    5.9511   -4.1763    0.0000 N   0  0  0  0  0  0  0  0  0  0  0  0
    5.2490   -4.5814    0.0000 C   0  0  0  0  0  0  0  0  0  0  0  0
    7.3225    0.7768    0.0000 O   0  0  0  0  0  0  0  0  0  0  0  0
    3.7624   -0.4536    0.0000 C   0  0  0  0  0  0  0  0  0  0  0  0
    3.0581   -0.8605    0.0000 O   0  0  0  0  0  0  0  0  0  0  0  0
    4.4930   -0.8754    0.0000 C   0  0  1  0  0  0  0  0  0  0  0  0
    4.4930   -1.7004    0.0000 N   0  0  0  0  0  0  0  0  0  0  0  0
    3.7705   -2.1176    0.0000 C   0  0  0  0  0  0  0  0  0  0  0  0
    3.0601   -1.7074    0.0000 O   0  0  0  0  0  0  0  0  0  0  0  0
    3.7707   -2.9357    0.0000 C   0  0  1  0  0  0  0  0  0  0  0  0
    4.4920   -3.3520    0.0000 N   0  0  0  0  0  0  0  0  0  0  0  0
    3.0631   -3.3444    0.0000 C   0  0  1  0  0  0  0  0  0  0  0  0
    2.3618   -2.9396    0.0000 C   0  0  0  0  0  0  0  0  0  0  0  0
    3.0631   -4.1731    0.0000 O   0  0  0  0  0  0  0  0  0  0  0  0
    1.6607   -3.3446    0.0000 O   0  0  0  0  0  0  0  0  0  0  0  0
    2.3616   -2.1109    0.0000 O   0  0  0  0  0  0  0  0  0  0  0  0
    4.4921   -4.1732    0.0000 C   0  0  0  0  0  0  0  0  0  0  0  0
    3.7755   -4.6009    0.0000 O   0  0  0  0  0  0  0  0  0  0  0  0
    5.1993   -0.4674    0.0000 C   0  0  2  0  0  0  0  0  0  0  0  0
    5.8981   -0.8708    0.0000 O   0  0  0  0  0  0  0  0  0  0  0  0
    5.1994    0.3641    0.0000 C   0  0  0  0  0  0  0  0  0  0  0  0
    5.9010    0.7694    0.0000 Cl  0  0  0  0  0  0  0  0  0  0  0  0
    5.2614   -5.4238    0.0000 C   0  0  0  0  0  0  0  0  0  0  0  0
    5.9949   -5.8332    0.0000 C   0  0  0  0  0  0  0  0  0  0  0  0
    0.1778    1.6018    0.0000 C   0  0  0  0  0  0  0  0  0  0  0  0
   -0.5367    2.0144    0.0000 C   0  0  0  0  0  0  0  0  0  0  0  0
   -1.2512    1.6019    0.0000 C   0  0  0  0  0  0  0  0  0  0  0  0
   -1.9656    2.0144    0.0000 C   0  0  0  0  0  0  0  0  0  0  0  0
   -1.9656    2.8394    0.0000 C   0  0  0  0  0  0  0  0  0  0  0  0
   -1.2511    3.2519    0.0000 C   0  0  0  0  0  0  0  0  0  0  0  0
   -0.5367    2.8393    0.0000 C   0  0  0  0  0  0  0  0  0  0  0  0
    0.1778    3.2518    0.0000 C   0  0  0  0  0  0  0  0  0  0  0  0
  1  2  1  0  0  0  0
  2  3  1  0  0  0  0
  3  4  1  0  0  0  0
  4  5  1  0  0  0  0
  5  6  1  0  0  0  0
  6  7  1  0  0  0  0
  7  8  1  0  0  0  0
  8  9  1  0  0  0  0
  9 10  1  0  0  0  0
 10 11  1  0  0  0  0
 11 12  1  0  0  0  0
  2 13  1  6  0  0  0
  4 14  2  0  0  0  0
  7 15  2  0  0  0  0
  9 16  1  6  0  0  0
 16 17  1  0  0  0  0
 12 18  1  1  0  0  0
 12 19  1  0  0  0  0
 18 20  1  0  0  0  0
 20 21  1  0  0  0  0
 19 22  2  0  0  0  0
 19 23  1  0  0  0  0
 23 24  1  0  0  0  0
 24 25  1  6  0  0  0
 24 26  1  0  0  0  0
 26 27  2  0  0  0  0
 26 28  1  0  0  0  0
 25 29  1  0  0  0  0
 29 30  1  0  0  0  0
 28 31  1  0  0  0  0
 31 32  1  1  0  0  0
 31 33  1  0  0  0  0
 32 34  1  0  0  0  0
 34 35  1  0  0  0  0
 35 36  1  0  0  0  0
 36 37  1  0  0  0  0
 37 38  1  0  0  0  0
 37 39  2  0  0  0  0
 33 40  1  0  0  0  0
 33 41  2  0  0  0  0
 40 42  1  0  0  0  0
 42 43  1  0  0  0  0
 42 44  1  1  0  0  0
 44 45  1  0  0  0  0
 45 46  2  0  0  0  0
 46 47  1  0  0  0  0
 47 48  2  0  0  0  0
 48 49  1  0  0  0  0
 49 50  2  0  0  0  0
 45 50  1  0  0  0  0
 43 51  2  0  0  0  0
  6 52  1  6  0  0  0
 52 53  1  0  0  0  0
 43 54  1  0  0  0  0
 54 55  1  0  0  0  0
 10 56  2  0  0  0  0
 53 57  1  0  0  0  0
 57 58  2  0  0  0  0
 57 59  1  0  0  0  0
 59 60  1  6  0  0  0
 60 61  1  0  0  0  0
 61 62  2  0  0  0  0
 61 63  1  0  0  0  0
 63 64  1  1  0  0  0
 63 65  1  0  0  0  0
 65 66  1  0  0  0  0
 65 67  1  6  0  0  0
 66 68  1  0  0  0  0
 66 69  2  0  0  0  0
 64 70  1  0  0  0  0
 70 55  1  0  0  0  0
 70 71  2  0  0  0  0
 59 72  1  0  0  0  0
 72 73  1  1  0  0  0
 72 74  1  0  0  0  0
 74 75  1  0  0  0  0
 55 76  2  0  0  0  0
 76 77  1  0  0  0  0
  1 78  1  0  0  0  0
 78 79  1  0  0  0  0
 79 80  1  0  0  0  0
 80 81  1  0  0  0  0
 81 82  1  0  0  0  0
 82 83  1  0  0  0  0
 83 84  1  0  0  0  0
 84 85  1  0  0  0  0
M  END
> <ID>
CHEBI:77762

> <NAME>
syringomycin E

$$$$

Mrv0541 08051409542D          
 
 25 29  0  0  1  0            999 V2000
   14.2720  -10.5607    0.0000 C   0  0  0  0  0  0  0  0  0  0  0  0
   14.9733  -10.1483    0.0000 C   0  0  0  0  0  0  0  0  0  0  0  0
   13.4882  -10.2720    0.0000 C   0  0  1  0  0  0  0  0  0  0  0  0
   14.2720  -11.3857    0.0000 C   0  0  0  0  0  0  0  0  0  0  0  0
   15.6745  -10.5607    0.0000 C   0  0  0  0  0  0  0  0  0  0  0  0
   14.9733   -9.3232    0.0000 O   0  0  0  0  0  0  0  0  0  0  0  0
   12.9933  -10.9733    0.0000 C   0  0  1  0  0  0  0  0  0  0  0  0
   12.9933   -9.6120    0.0000 C   0  0  0  0  0  0  0  0  0  0  0  0
   14.9733  -11.7983    0.0000 C   0  0  0  0  0  0  0  0  0  0  0  0
   13.4470  -11.6333    0.0000 O   0  0  0  0  0  0  0  0  0  0  0  0
   16.3758  -10.1483    0.0000 C   0  0  0  0  0  0  0  0  0  0  0  0
   15.6745  -11.3857    0.0000 C   0  0  0  0  0  0  0  0  0  0  0  0
   15.6745   -8.9107    0.0000 C   0  0  0  0  0  0  0  0  0  0  0  0
   12.2095  -10.6845    0.0000 O   0  0  0  0  0  0  0  0  0  0  0  0
   12.2095   -9.8595    0.0000 C   0  0  0  0  0  0  0  0  0  0  0  0
   16.3758   -9.3232    0.0000 C   0  0  0  0  0  0  0  0  0  0  0  0
   16.3758  -11.7983    0.0000 O   0  0  0  0  0  0  0  0  0  0  0  0
   15.6745   -8.0857    0.0000 O   0  0  0  0  0  0  0  0  0  0  0  0
   17.1183  -11.3857    0.0000 C   0  0  0  0  0  0  0  0  0  0  0  0
   13.9832   -9.6120    0.0000 O   0  0  0  0  0  0  0  0  0  0  0  0
   12.4157  -11.5508    0.0000 H   0  0  0  0  0  0  0  0  0  0  0  0
   17.1604  -10.4032    0.0000 C   0  0  0  0  0  0  0  0  0  0  0  0
   17.6454   -9.7357    0.0000 C   0  0  0  0  0  0  0  0  0  0  0  0
   17.1604   -9.0683    0.0000 C   0  0  0  0  0  0  0  0  0  0  0  0
   17.4131   -8.2907    0.0000 O   0  0  0  0  0  0  0  0  0  0  0  0
  1  2  1  0  0  0  0
  1  3  1  0  0  0  0
  1  4  2  0  0  0  0
  2  5  2  0  0  0  0
  2  6  1  0  0  0  0
  3  7  1  0  0  0  0
  3  8  1  0  0  0  0
  4  9  1  0  0  0  0
  4 10  1  0  0  0  0
  5 11  1  0  0  0  0
  5 12  1  0  0  0  0
  6 13  1  0  0  0  0
  7 14  1  0  0  0  0
  8 15  2  0  0  0  0
 11 16  2  0  0  0  0
 12 17  1  0  0  0  0
 13 18  2  0  0  0  0
 17 19  1  0  0  0  0
  7 10  1  0  0  0  0
  9 12  2  0  0  0  0
 13 16  1  0  0  0  0
 14 15  1  0  0  0  0
  3 20  1  6  0  0  0
  7 21  1  6  0  0  0
 11 22  1  0  0  0  0
 22 23  1  0  0  0  0
 23 24  1  0  0  0  0
 16 24  1  0  0  0  0
 24 25  2  0  0  0  0
M  END
> <ID>
CHEBI:78576

> <NAME>
aflatoxin M1

$$$$

Mrv0541 08051413402D          

 26 30  0  0  1  0            999 V2000
    8.1855   -3.1021    0.0000 C   0  0  0  0  0  0  0  0  0  0  0  0
    8.8967   -3.5164    0.0000 C   0  0  0  0  0  0  0  0  0  0  0  0
    8.1890   -2.2771    0.0000 O   0  0  0  0  0  0  0  0  0  0  0  0
    9.6148   -3.1090    0.0000 C   0  0  0  0  0  0  0  0  0  0  0  0
    8.9070   -1.8697    0.0000 C   0  0  0  0  0  0  0  0  0  0  0  0
    9.6181   -2.2840    0.0000 C   0  0  0  0  0  0  0  0  0  0  0  0
   10.3949   -3.3680    0.0000 C   0  0  2  0  0  0  0  0  0  0  0  0
    8.9002   -1.0412    0.0000 O   0  0  0  0  0  0  0  0  0  0  0  0
   10.4018   -2.0353    0.0000 C   0  0  0  0  0  0  0  0  0  0  0  0
   10.8817   -2.7017    0.0000 C   0  0  0  0  0  0  0  0  0  0  0  0
   10.6608   -1.2483    0.0000 O   0  0  0  0  0  0  0  0  0  0  0  0
   10.6464   -4.1539    0.0000 O   0  0  0  0  0  0  0  0  0  0  0  0
    8.8934   -4.3393    0.0000 C   0  0  0  0  0  0  0  0  0  0  0  0
    8.1791   -4.7480    0.0000 C   0  0  0  0  0  0  0  0  0  0  0  0
    7.4713   -3.5108    0.0000 C   0  0  0  0  0  0  0  0  0  0  0  0
    7.4680   -4.3337    0.0000 C   0  0  0  0  0  0  0  0  0  0  0  0
    9.6064   -4.7547    0.0000 O   0  0  0  0  0  0  0  0  0  0  0  0
    9.6032   -5.5799    0.0000 C   0  0  0  0  0  0  0  0  0  0  0  0
    6.7005   -3.2129    0.0000 C   0  0  1  0  0  0  0  0  0  0  0  0
    6.1800   -3.8628    0.0000 C   0  0  1  0  0  0  0  0  0  0  0  0
    6.2451   -2.5148    0.0000 C   0  0  0  0  0  0  0  0  0  0  0  0
    6.6323   -4.5540    0.0000 O   0  0  0  0  0  0  0  0  0  0  0  0
    5.4023   -3.5647    0.0000 O   0  0  0  0  0  0  0  0  0  0  0  0
    5.4438   -2.7337    0.0000 C   0  0  0  0  0  0  0  0  0  0  0  0
    7.1461   -2.5166    0.0000 H   0  0  0  0  0  0  0  0  0  0  0  0
    5.7344   -4.5591    0.0000 H   0  0  0  0  0  0  0  0  0  0  0  0
  1  3  1  0  0  0  0
  2  4  1  0  0  0  0
  3  5  1  0  0  0  0
  4  6  2  0  0  0  0
  4  7  1  0  0  0  0
  5  8  2  0  0  0  0
  6  9  1  0  0  0  0
  7 10  1  0  0  0  0
  9 11  2  0  0  0  0
  5  6  1  0  0  0  0
  9 10  1  0  0  0  0
  7 12  1  6  0  0  0
 13  2  1  0  0  0  0
  1  2  2  0  0  0  0
 14 13  2  0  0  0  0
 15  1  1  0  0  0  0
 16 14  1  0  0  0  0
 13 17  1  0  0  0  0
 17 18  1  0  0  0  0
 15 19  1  0  0  0  0
 15 16  2  0  0  0  0
 19 20  1  0  0  0  0
 19 21  1  0  0  0  0
 16 22  1  0  0  0  0
 20 23  1  0  0  0  0
 21 24  2  0  0  0  0
 20 22  1  0  0  0  0
 23 24  1  0  0  0  0
 19 25  1  6  0  0  0
 20 26  1  6  0  0  0
M  END
> <ID>
CHEBI:78582

> <NAME>
aflatoxin Q1

$$$$

Mrv0541 04131510192D          

 27 30  0  0  0  0            999 V2000
    2.6357    0.5755    0.0000 C   0  0  0  0  0  0  0  0  0  0  0  0
    2.6357   -0.2494    0.0000 C   0  0  0  0  0  0  0  0  0  0  0  0
    1.9213    0.9880    0.0000 C   0  0  0  0  0  0  0  0  0  0  0  0
    1.9213   -0.6620    0.0000 C   0  0  0  0  0  0  0  0  0  0  0  0
    1.2068    0.5755    0.0000 C   0  0  0  0  0  0  0  0  0  0  0  0
    1.2068   -0.2494    0.0000 C   0  0  0  0  0  0  0  0  0  0  0  0
    3.4203    0.8304    0.0000 C   0  0  2  0  0  0  0  0  0  0  0  0
    3.9052    0.1630    0.0000 C   0  0  2  0  0  0  0  0  0  0  0  0
    3.4203   -0.5044    0.0000 N   0  0  0  0  0  0  0  0  0  0  0  0
    4.6899   -0.0918    0.0000 C   0  0  2  0  0  0  0  0  0  0  0  0
    4.6899   -0.9169    0.0000 C   0  0  2  0  0  0  0  0  0  0  0  0
    3.9052   -1.1718    0.0000 C   0  0  0  0  0  0  0  0  0  0  0  0
    1.9213    1.8130    0.0000 O   0  0  0  0  0  0  0  0  0  0  0  0
    1.9213   -1.4870    0.0000 O   0  0  0  0  0  0  0  0  0  0  0  0
    0.4923    0.9880    0.0000 O   0  0  0  0  0  0  0  0  0  0  0  0
    5.4043   -0.5044    0.0000 N   0  0  0  0  0  0  0  0  0  0  0  0
    0.4923   -0.6620    0.0000 C   0  0  0  0  0  0  0  0  0  0  0  0
    4.3901    0.8304    0.0000 O   0  0  0  0  0  0  0  0  0  0  0  0
    3.6752    1.6151    0.0000 C   0  0  0  0  0  0  0  0  0  0  0  0
    3.1232    2.2282    0.0000 O   0  0  0  0  0  0  0  0  0  0  0  0
    3.3781    3.0128    0.0000 C   0  0  0  0  0  0  0  0  0  0  0  0
    4.1851    3.1844    0.0000 N   0  0  0  0  0  0  0  0  0  0  0  0
    2.8261    3.6258    0.0000 O   0  0  0  0  0  0  0  0  0  0  0  0
    4.8934    0.4779    0.0000 H   0  0  0  0  0  0  0  0  0  0  0  0
    4.8698   -1.5811    0.0000 H   0  0  0  0  0  0  0  0  0  0  0  0
    4.3983    1.7117    0.0000 C   0  0  0  0  0  0  0  0  0  0  0  0
   -0.2222    0.5755    0.0000 C   0  0  0  0  0  0  0  0  0  0  0  0
  3  1  1  0  0  0  0
  4  2  1  0  0  0  0
  5  3  1  0  0  0  0
  6  4  1  0  0  0  0
  6  5  2  0  0  0  0
  7  1  1  0  0  0  0
  2  1  2  0  0  0  0
  8  7  1  0  0  0  0
  9  2  1  0  0  0  0
 10  8  1  0  0  0  0
  9  8  1  0  0  0  0
 11 10  1  0  0  0  0
 12 11  1  0  0  0  0
 12  9  1  0  0  0  0
 13  3  2  0  0  0  0
 14  4  2  0  0  0  0
 15  5  1  0  0  0  0
 16 10  1  0  0  0  0
 11 16  1  0  0  0  0
 17  6  1  0  0  0  0
  8 18  1  6  0  0  0
  7 19  1  1  0  0  0
 20 19  1  0  0  0  0
 21 20  1  0  0  0  0
 22 21  1  0  0  0  0
 23 21  2  0  0  0  0
 10 24  1  6  0  0  0
 11 25  1  6  0  0  0
 26 18  1  0  0  0  0
 15 27  1  0  0  0  0
M  END
> <ID>
CHEBI:85412

> <NAME>
mitomycin A

$$$$

Ketcher 12031517062D 1   1.00000     0.00000     0

207215  0     1  0            999 V2000
   36.3768   -7.8912    0.0000 N   0  0  0  0  0  0  0  0  0  0  0  0
   36.3768   -7.0723    0.0000 C   0  0  0  0  0  0  0  0  0  0  0  0
   35.6630   -6.6591    0.0000 C   0  0  0  0  0  0  0  0  0  0  0  0
   37.0830   -6.6591    0.0000 C   0  0  0  0  0  0  0  0  0  0  0  0
   34.9568   -7.0723    0.0000 N   0  0  0  0  0  0  0  0  0  0  0  0
   35.6630   -5.8401    0.0000 O   0  0  0  0  0  0  0  0  0  0  0  0
   37.0830   -5.8401    0.0000 C   0  0  0  0  0  0  0  0  0  0  0  0
   34.2506   -6.6591    0.0000 C   0  0  0  0  0  0  0  0  0  0  0  0
   37.7967   -5.4269    0.0000 C   0  0  0  0  0  0  0  0  0  0  0  0
   36.3768   -5.4269    0.0000 C   0  0  0  0  0  0  0  0  0  0  0  0
   33.5369   -7.0723    0.0000 C   0  0  0  0  0  0  0  0  0  0  0  0
   34.2506   -5.8401    0.0000 C   0  0  0  0  0  0  0  0  0  0  0  0
   37.7967   -4.6080    0.0000 C   0  0  0  0  0  0  0  0  0  0  0  0
   36.3768   -4.6080    0.0000 C   0  0  0  0  0  0  0  0  0  0  0  0
   32.8307   -6.6591    0.0000 N   0  0  0  0  0  0  0  0  0  0  0  0
   33.5369   -7.8912    0.0000 O   0  0  0  0  0  0  0  0  0  0  0  0
   33.5369   -5.4269    0.0000 O   0  0  0  0  0  0  0  0  0  0  0  0
   34.9568   -5.4269    0.0000 C   0  0  0  0  0  0  0  0  0  0  0  0
   37.0830   -4.2023    0.0000 C   0  0  0  0  0  0  0  0  0  0  0  0
   32.1169   -7.0723    0.0000 C   0  0  0  0  0  0  0  0  0  0  0  0
   37.0830   -3.3834    0.0000 O   0  0  0  0  0  0  0  0  0  0  0  0
   31.4107   -6.6591    0.0000 C   0  0  0  0  0  0  0  0  0  0  0  0
   32.1169   -7.8912    0.0000 C   0  0  0  0  0  0  0  0  0  0  0  0
   30.6969   -7.0723    0.0000 N   0  0  0  0  0  0  0  0  0  0  0  0
   31.4107   -5.8401    0.0000 O   0  0  0  0  0  0  0  0  0  0  0  0
   32.8307   -8.2969    0.0000 C   0  0  0  0  0  0  0  0  0  0  0  0
   29.9907   -6.6591    0.0000 C   0  0  0  0  0  0  0  0  0  0  0  0
   32.8307   -9.1159    0.0000 C   0  0  0  0  0  0  0  0  0  0  0  0
   29.2769   -7.0723    0.0000 C   0  0  0  0  0  0  0  0  0  0  0  0
   29.9907   -5.8401    0.0000 C   0  0  0  0  0  0  0  0  0  0  0  0
   33.5369   -9.5290    0.0000 C   0  0  0  0  0  0  0  0  0  0  0  0
   28.5707   -6.6591    0.0000 N   0  0  0  0  0  0  0  0  0  0  0  0
   29.2769   -7.8912    0.0000 O   0  0  0  0  0  0  0  0  0  0  0  0
   29.2769   -5.4269    0.0000 C   0  0  0  0  0  0  0  0  0  0  0  0
   33.5369  -10.3480    0.0000 N   0  0  0  0  0  0  0  0  0  0  0  0
   27.8569   -7.0723    0.0000 C   0  0  0  0  0  0  0  0  0  0  0  0
   29.2769   -4.6080    0.0000 C   0  0  0  0  0  0  0  0  0  0  0  0
   27.1507   -6.6591    0.0000 C   0  0  0  0  0  0  0  0  0  0  0  0
   27.8569   -7.8912    0.0000 C   0  0  0  0  0  0  0  0  0  0  0  0
   28.5707   -4.2023    0.0000 N   0  0  0  0  0  0  0  0  0  0  0  0
   26.4371   -7.0723    0.0000 N   0  0  0  0  0  0  0  0  0  0  0  0
   27.1507   -5.8401    0.0000 O   0  0  0  0  0  0  0  0  0  0  0  0
   27.1507   -8.2969    0.0000 S   0  0  0  0  0  0  0  0  0  0  0  0
   28.5707   -3.3834    0.0000 C   0  0  0  0  0  0  0  0  0  0  0  0
   25.7308   -6.6591    0.0000 C   0  0  0  0  0  0  0  0  0  0  0  0
   29.2769   -2.9701    0.0000 N   0  0  0  0  0  0  0  0  0  0  0  0
   27.8569   -2.9701    0.0000 N   0  0  0  0  0  0  0  0  0  0  0  0
   25.7308   -5.8401    0.0000 C   0  0  0  0  0  0  0  0  0  0  0  0
   25.0171   -7.0723    0.0000 C   0  0  0  0  0  0  0  0  0  0  0  0
   25.0171   -5.4269    0.0000 C   0  0  0  0  0  0  0  0  0  0  0  0
   25.0171   -7.8912    0.0000 O   0  0  0  0  0  0  0  0  0  0  0  0
   24.3109   -6.6591    0.0000 N   0  0  0  0  0  0  0  0  0  0  0  0
   24.3109   -5.8401    0.0000 C   0  0  0  0  0  0  0  0  0  0  0  0
   25.0171   -4.6080    0.0000 C   0  0  0  0  0  0  0  0  0  0  0  0
   23.5971   -5.4269    0.0000 C   0  0  0  0  0  0  0  0  0  0  0  0
   24.3109   -4.2023    0.0000 C   0  0  0  0  0  0  0  0  0  0  0  0
   23.5971   -4.6080    0.0000 C   0  0  0  0  0  0  0  0  0  0  0  0
   22.8909   -4.2023    0.0000 O   0  0  0  0  0  0  0  0  0  0  0  0
   21.6846  -10.7730    0.0000 S   0  0  0  0  0  0  0  0  0  0  0  0
   21.6546  -11.5994    0.0000 C   0  0  0  0  0  0  0  0  0  0  0  0
   20.9258  -11.9750    0.0000 C   0  0  0  0  0  0  0  0  0  0  0  0
   20.8883  -12.7940    0.0000 C   0  0  0  0  0  0  0  0  0  0  0  0
   20.2346  -11.5317    0.0000 N   0  0  0  0  0  0  0  0  0  0  0  0
   21.5795  -13.2372    0.0000 N   0  0  0  0  0  0  0  0  0  0  0  0
   20.1595  -13.1696    0.0000 O   0  0  0  0  0  0  0  0  0  0  0  0
   19.5058  -11.9075    0.0000 C   0  0  0  0  0  0  0  0  0  0  0  0
   21.5419  -14.0486    0.0000 C   0  0  0  0  0  0  0  0  0  0  0  0
   18.8146  -11.4716    0.0000 C   0  0  0  0  0  0  0  0  0  0  0  0
   19.4683  -12.7263    0.0000 O   0  0  0  0  0  0  0  0  0  0  0  0
   22.2330  -14.4919    0.0000 C   0  0  0  0  0  0  0  0  0  0  0  0
   20.8131  -14.4318    0.0000 C   0  0  0  0  0  0  0  0  0  0  0  0
   18.0859  -11.8474    0.0000 N   0  0  0  0  0  0  0  0  0  0  0  0
   18.8522  -10.6528    0.0000 C   0  0  0  0  0  0  0  0  0  0  0  0
   22.1956  -15.3110    0.0000 N   0  0  0  0  0  0  0  0  0  0  0  0
   22.9616  -14.1163    0.0000 O   0  0  0  0  0  0  0  0  0  0  0  0
   20.7755  -15.2507    0.0000 O   0  0  0  0  0  0  0  0  0  0  0  0
   18.0483  -12.6662    0.0000 C   0  0  0  0  0  0  0  0  0  0  0  0
   19.5809  -10.2771    0.0000 O   0  0  0  0  0  0  0  0  0  0  0  0
   17.3195  -13.0419    0.0000 C   0  0  0  0  0  0  0  0  0  0  0  0
   18.7395  -13.1096    0.0000 O   0  0  0  0  0  0  0  0  0  0  0  0
   17.2895  -13.8608    0.0000 N   0  0  0  0  0  0  0  0  0  0  0  0
   16.6358  -12.6061    0.0000 C   0  0  0  0  0  0  0  0  0  0  0  0
   17.9807  -14.3040    0.0000 C   0  0  0  0  0  0  0  0  0  0  0  0
   16.6659  -11.7872    0.0000 O   0  0  0  0  0  0  0  0  0  0  0  0
   17.9431  -15.1230    0.0000 C   0  0  0  0  0  0  0  0  0  0  0  0
   18.7019  -13.9284    0.0000 O   0  0  0  0  0  0  0  0  0  0  0  0
   18.6343  -15.5663    0.0000 N   0  0  0  0  0  0  0  0  0  0  0  0
   20.6754  -22.5039    0.0000 S   0  0  0  0  0  0  0  0  0  0  0  0
   19.9692  -22.9096    0.0000 C   0  0  0  0  0  0  0  0  0  0  0  0
   19.2555  -22.5039    0.0000 C   0  0  0  0  0  0  0  0  0  0  0  0
   19.2555  -21.6850    0.0000 C   0  0  0  0  0  0  0  0  0  0  0  0
   18.5492  -22.9096    0.0000 N   0  0  0  0  0  0  0  0  0  0  0  0
   19.9692  -21.2718    0.0000 N   0  0  0  0  0  0  0  0  0  0  0  0
   18.5492  -21.2718    0.0000 O   0  0  0  0  0  0  0  0  0  0  0  0
   19.9692  -20.4528    0.0000 C   0  0  0  0  0  0  0  0  0  0  0  0
   19.2555  -20.0471    0.0000 C   0  0  0  0  0  0  0  0  0  0  0  0
   20.6754  -20.0471    0.0000 C   0  0  0  0  0  0  0  0  0  0  0  0
   17.8355  -17.5903    0.0000 N   0  0  0  0  0  0  0  0  0  0  0  0
   19.2555  -19.2283    0.0000 N   0  0  0  0  0  0  0  0  0  0  0  0
   18.5492  -20.4528    0.0000 O   0  0  0  0  0  0  0  0  0  0  0  0
   21.3828  -20.4597    0.0000 C   0  0  0  0  0  0  0  0  0  0  0  0
   18.5492  -17.9961    0.0000 C   0  0  0  0  0  0  0  0  0  0  0  0
   18.5492  -18.8150    0.0000 C   0  0  0  0  0  0  0  0  0  0  0  0
   22.0994  -20.0512    0.0000 C   0  0  0  0  0  0  0  0  0  0  0  0
   19.2555  -17.5903    0.0000 O   0  0  0  0  0  0  0  0  0  0  0  0
   17.8355  -19.2283    0.0000 C   0  0  0  0  0  0  0  0  0  0  0  0
   22.8068  -20.4638    0.0000 C   0  0  0  0  0  0  0  0  0  0  0  0
   23.5131  -20.0580    0.0000 N   0  0  0  0  0  0  0  0  0  0  0  0
   17.8337  -20.0444    0.0000 O   0  0  0  0  0  0  0  0  0  0  0  0
   17.9214  -16.7802    0.0000 C   0  0  0  0  0  0  0  0  0  0  0  0
   17.1869  -16.4490    0.0000 C   0  0  0  0  0  0  0  0  0  0  0  0
   18.6272  -16.3791    0.0000 C   0  0  0  0  0  0  0  0  0  0  0  0
   16.6325  -17.0478    0.0000 C   0  0  0  0  0  0  0  0  0  0  0  0
   17.0354  -17.7569    0.0000 C   0  0  0  0  0  0  0  0  0  0  0  0
   19.3295  -16.7975    0.0000 O   0  0  0  0  0  0  0  0  0  0  0  0
   15.8217  -16.9536    0.0000 O   0  0  0  0  0  0  0  0  0  0  0  0
   22.9385  -15.6454    0.0000 C   0  0  0  0  0  0  0  0  0  0  0  0
   22.8542  -16.4467    0.0000 C   0  0  0  0  0  0  0  0  0  0  0  0
   23.6408  -15.2381    0.0000 C   0  0  0  0  0  0  0  0  0  0  0  0
   22.0574  -16.6235    0.0000 C   0  0  0  0  0  0  0  0  0  0  0  0
   21.6483  -15.9180    0.0000 C   0  0  0  0  0  0  0  0  0  0  0  0
   24.3462  -15.6418    0.0000 N   0  0  0  0  0  0  0  0  0  0  0  0
   23.6336  -14.4207    0.0000 O   0  0  0  0  0  0  0  0  0  0  0  0
   21.7300  -17.3711    0.0000 O   0  0  0  0  0  0  0  0  0  0  0  0
   36.3357   -9.5857    0.0000 N   0  0  0  0  0  0  0  0  0  0  0  0
   37.0431   -9.1731    0.0000 C   0  0  0  0  0  0  0  0  0  0  0  0
   37.7494   -9.5788    0.0000 C   0  0  0  0  0  0  0  0  0  0  0  0
   37.0341   -8.3522    0.0000 O   0  0  0  0  0  0  0  0  0  0  0  0
   37.7494  -10.3977    0.0000 N   0  0  0  0  0  0  0  0  0  0  0  0
   38.4631   -9.1731    0.0000 C   0  0  0  0  0  0  0  0  0  0  0  0
   38.4631  -10.8109    0.0000 C   0  0  0  0  0  0  0  0  0  0  0  0
   38.4631   -8.3542    0.0000 C   0  0  0  0  0  0  0  0  0  0  0  0
   38.4631  -11.6299    0.0000 C   0  0  0  0  0  0  0  0  0  0  0  0
   39.1694  -10.3977    0.0000 O   0  0  0  0  0  0  0  0  0  0  0  0
   39.2070  -12.0356    0.0000 N   0  0  0  0  0  0  0  0  0  0  0  0
   37.7494  -12.0356    0.0000 C   0  0  0  0  0  0  0  0  0  0  0  0
   39.2595  -12.8696    0.0000 C   0  0  0  0  0  0  0  0  0  0  0  0
   37.0431  -11.6299    0.0000 S   0  0  0  0  0  0  0  0  0  0  0  0
   38.5908  -13.2753    0.0000 C   0  0  0  0  0  0  0  0  0  0  0  0
   40.0108  -13.2753    0.0000 O   0  0  0  0  0  0  0  0  0  0  0  0
   38.5908  -14.1017    0.0000 N   0  0  0  0  0  0  0  0  0  0  0  0
   37.8846  -12.8696    0.0000 C   0  0  0  0  0  0  0  0  0  0  0  0
   37.8846  -14.5074    0.0000 C   0  0  0  0  0  0  0  0  0  0  0  0
   37.1710  -13.2753    0.0000 O   0  0  0  0  0  0  0  0  0  0  0  0
   37.8846  -15.3263    0.0000 C   0  0  0  0  0  0  0  0  0  0  0  0
   37.1710  -14.1017    0.0000 O   0  0  0  0  0  0  0  0  0  0  0  0
   37.1710  -15.7395    0.0000 N   0  0  0  0  0  0  0  0  0  0  0  0
   38.5908  -15.7395    0.0000 C   0  0  0  0  0  0  0  0  0  0  0  0
   36.4647  -15.3263    0.0000 C   0  0  0  0  0  0  0  0  0  0  0  0
   39.3046  -15.3263    0.0000 C   0  0  0  0  0  0  0  0  0  0  0  0
   35.7510  -15.7395    0.0000 C   0  0  0  0  0  0  0  0  0  0  0  0
   36.4647  -14.5074    0.0000 O   0  0  0  0  0  0  0  0  0  0  0  0
   40.0108  -15.7395    0.0000 C   0  0  0  0  0  0  0  0  0  0  0  0
   35.0447  -15.3263    0.0000 N   0  0  0  0  0  0  0  0  0  0  0  0
   35.7510  -16.5585    0.0000 C   0  0  0  0  0  0  0  0  0  0  0  0
   40.7246  -15.3263    0.0000 N   0  0  0  0  0  0  0  0  0  0  0  0
   34.3310  -15.7395    0.0000 C   0  0  0  0  0  0  0  0  0  0  0  0
   36.4647  -16.9642    0.0000 S   0  0  0  0  0  0  0  0  0  0  0  0
   41.4308  -15.7395    0.0000 C   0  0  0  0  0  0  0  0  0  0  0  0
   33.6247  -15.3263    0.0000 C   0  0  0  0  0  0  0  0  0  0  0  0
   34.3310  -16.5585    0.0000 O   0  0  0  0  0  0  0  0  0  0  0  0
   41.4308  -16.5585    0.0000 N   0  0  0  0  0  0  0  0  0  0  0  0
   42.1445  -15.3263    0.0000 N   0  0  0  0  0  0  0  0  0  0  0  0
   34.6060  -13.8267    0.0000 S   0  0  0  0  0  0  0  0  0  0  0  0
   32.9110  -15.7395    0.0000 N   0  0  0  0  0  0  0  0  0  0  0  0
   33.6247  -14.5074    0.0000 C   0  0  0  0  0  0  0  0  0  0  0  0
   32.2049  -15.3263    0.0000 C   0  0  0  0  0  0  0  0  0  0  0  0
   25.1049  -15.3263    0.0000 C   0  0  0  0  0  0  0  0  0  0  0  0
   31.4910  -15.7395    0.0000 C   0  0  0  0  0  0  0  0  0  0  0  0
   32.2049  -14.5074    0.0000 O   0  0  0  0  0  0  0  0  0  0  0  0
   25.8187  -15.7395    0.0000 C   0  0  0  0  0  0  0  0  0  0  0  0
   25.1049  -14.5074    0.0000 C   0  0  0  0  0  0  0  0  0  0  0  0
   30.7849  -15.3263    0.0000 N   0  0  0  0  0  0  0  0  0  0  0  0
   31.4910  -16.5585    0.0000 C   0  0  0  0  0  0  0  0  0  0  0  0
   26.5249  -15.3263    0.0000 N   0  0  0  0  0  0  0  0  0  0  0  0
   25.8187  -16.5585    0.0000 O   0  0  0  0  0  0  0  0  0  0  0  0
   25.8187  -14.1017    0.0000 O   0  0  0  0  0  0  0  0  0  0  0  0
   24.3987  -14.1017    0.0000 C   0  0  0  0  0  0  0  0  0  0  0  0
   30.0710  -15.7395    0.0000 C   0  0  0  0  0  0  0  0  0  0  0  0
   32.2049  -16.9642    0.0000 C   0  0  0  0  0  0  0  0  0  0  0  0
   27.2387  -15.7395    0.0000 C   0  0  0  0  0  0  0  0  0  0  0  0
   29.3649  -15.3263    0.0000 C   0  0  0  0  0  0  0  0  0  0  0  0
   30.0710  -16.5585    0.0000 O   0  0  0  0  0  0  0  0  0  0  0  0
   32.2049  -17.7831    0.0000 O   0  0  0  0  0  0  0  0  0  0  0  0
   32.9110  -16.5585    0.0000 N   0  0  0  0  0  0  0  0  0  0  0  0
   27.9449  -15.3263    0.0000 C   0  0  0  0  0  0  0  0  0  0  0  0
   27.2387  -16.5585    0.0000 C   0  0  0  0  0  0  0  0  0  0  0  0
   28.6512  -15.7395    0.0000 N   0  0  0  0  0  0  0  0  0  0  0  0
   29.3649  -14.5074    0.0000 C   0  0  0  0  0  0  0  0  0  0  0  0
   27.9449  -14.5074    0.0000 O   0  0  0  0  0  0  0  0  0  0  0  0
   27.9449  -16.9642    0.0000 O   0  0  0  0  0  0  0  0  0  0  0  0
   30.0710  -14.1017    0.0000 C   0  0  0  0  0  0  0  0  0  0  0  0
   30.7849  -14.5074    0.0000 C   0  0  0  0  0  0  0  0  0  0  0  0
   30.0710  -13.2753    0.0000 C   0  0  0  0  0  0  0  0  0  0  0  0
   31.4910  -14.1017    0.0000 C   0  0  0  0  0  0  0  0  0  0  0  0
   30.7849  -12.8696    0.0000 C   0  0  0  0  0  0  0  0  0  0  0  0
   31.4910  -13.2753    0.0000 C   0  0  0  0  0  0  0  0  0  0  0  0
   32.2049  -12.8696    0.0000 O   0  0  0  0  0  0  0  0  0  0  0  0
   35.6737   -9.1107    0.0000 C   0  0  0  0  0  0  0  0  0  0  0  0
   35.0229   -9.5857    0.0000 C   0  0  0  0  0  0  0  0  0  0  0  0
   35.6737   -8.2990    0.0000 C   0  0  0  0  0  0  0  0  0  0  0  0
   35.2696  -10.3636    0.0000 C   0  0  0  0  0  0  0  0  0  0  0  0
   36.0852  -10.3636    0.0000 C   0  0  0  0  0  0  0  0  0  0  0  0
   34.9630   -7.8951    0.0000 O   0  0  0  0  0  0  0  0  0  0  0  0
   34.7871  -11.0219    0.0000 O   0  0  0  0  0  0  0  0  0  0  0  0
   39.1700   -7.9461    0.0000 N   0  0  0  0  0  0  0  0  0  0  0  0
   37.7564   -7.9461    0.0000 O   0  0  0  0  0  0  0  0  0  0  0  0
  2  1  1  6     0  0
  2  3  1  0     0  0
  2  4  1  0     0  0
  3  5  1  0     0  0
  3  6  2  0     0  0
  4  7  1  0     0  0
  8  5  1  6     0  0
  7  9  2  0     0  0
  7 10  1  0     0  0
  8 11  1  0     0  0
  8 12  1  0     0  0
  9 13  1  0     0  0
 10 14  2  0     0  0
 11 15  1  0     0  0
 11 16  2  0     0  0
 12 17  1  6     0  0
 12 18  1  0     0  0
 13 19  2  0     0  0
 14 19  1  0     0  0
 20 15  1  1     0  0
 19 21  1  0     0  0
 20 22  1  0     0  0
 20 23  1  0     0  0
 22 24  1  0     0  0
 22 25  2  0     0  0
 23 26  1  0     0  0
 27 24  1  6     0  0
 26 28  1  0     0  0
 27 29  1  0     0  0
 27 30  1  0     0  0
 28 31  1  0     0  0
 29 32  1  0     0  0
 29 33  2  0     0  0
 30 34  1  0     0  0
 31 35  1  0     0  0
 36 32  1  1     0  0
 34 37  1  0     0  0
 36 38  1  0     0  0
 36 39  1  0     0  0
 37 40  1  0     0  0
 38 41  1  0     0  0
 38 42  2  0     0  0
 39 43  1  0     0  0
 40 44  1  0     0  0
 45 41  1  6     0  0
 44 46  1  0     0  0
 44 47  2  0     0  0
 45 48  1  0     0  0
 45 49  1  0     0  0
 48 50  1  0     0  0
 49 51  2  0     0  0
 49 52  1  0     0  0
 50 53  1  0     0  0
 50 54  2  0     0  0
 53 55  2  0     0  0
 54 56  1  0     0  0
 55 57  1  0     0  0
 56 57  2  0     0  0
 57 58  1  0     0  0
 59 60  1  0     0  0
 60 61  1  0     0  0
 61 62  1  0     0  0
 61 63  1  1     0  0
 62 64  1  0     0  0
 62 65  2  0     0  0
 63 66  1  0     0  0
 67 64  1  6     0  0
 66 68  1  0     0  0
 66 69  2  0     0  0
 67 70  1  0     0  0
 67 71  1  0     0  0
 68 72  1  1     0  0
 68 73  1  0     0  0
 70 74  1  0     0  0
 70 75  2  0     0  0
 71 76  1  0     0  0
 72 77  1  0     0  0
 73 78  1  0     0  0
 77 79  1  0     0  0
 77 80  2  0     0  0
 79 81  1  1     0  0
 79 82  1  0     0  0
 81 83  1  0     0  0
 82 84  1  0     0  0
 83 85  1  0     0  0
 83 86  2  0     0  0
 85 87  1  0     0  0
 88 89  1  0     0  0
 89 90  1  0     0  0
 90 91  1  0     0  0
 90 92  1  6     0  0
 91 93  1  0     0  0
 91 94  2  0     0  0
 95 93  1  6     0  0
 95 96  1  0     0  0
 95 97  1  0     0  0
 96 99  1  0     0  0
 96100  2  0     0  0
 97101  1  0     0  0
 98102  1  0     0  0
103 99  1  1     0  0
101104  1  0     0  0
102103  1  0     0  0
102105  2  0     0  0
103106  1  0     0  0
104107  1  0     0  0
107108  1  0     0  0
106109  1  0     0  0
110111  1  0     0  0
110 98  1  0     0  0
110112  1  1     0  0
111113  1  0     0  0
 98114  1  0     0  0
112 87  1  0     0  0
112115  2  0     0  0
113116  1  6     0  0
113114  1  0     0  0
117118  1  0     0  0
117 74  1  0     0  0
117119  1  6     0  0
118120  1  0     0  0
 74121  1  0     0  0
119122  1  0     0  0
119123  2  0     0  0
120124  1  1     0  0
120121  1  0     0  0
125126  1  0     0  0
126127  1  0     0  0
126128  2  0     0  0
127129  1  6     0  0
127130  1  0     0  0
129131  1  0     0  0
130132  1  0     0  0
131133  1  0     0  0
131134  2  0     0  0
133135  1  1     0  0
133136  1  0     0  0
135137  1  0     0  0
136138  1  0     0  0
137139  1  0     0  0
137140  2  0     0  0
139141  1  1     0  0
139142  1  0     0  0
141143  1  0     0  0
142144  1  0     0  0
143145  1  0     0  0
143146  2  0     0  0
145147  1  6     0  0
145148  1  0     0  0
147149  1  0     0  0
148150  1  0     0  0
149151  1  0     0  0
149152  2  0     0  0
150153  1  0     0  0
151154  1  6     0  0
151155  1  0     0  0
153156  1  0     0  0
154157  1  0     0  0
155158  1  0     0  0
156159  1  0     0  0
157160  1  0     0  0
157161  2  0     0  0
159162  1  0     0  0
159163  2  0     0  0
160165  1  1     0  0
160166  1  0     0  0
164166  1  0     0  0
165167  1  0     0  0
168122  1  1     0  0
167169  1  0     0  0
167170  2  0     0  0
168171  1  0     0  0
168172  1  0     0  0
169173  1  6     0  0
169174  1  0     0  0
171175  1  0     0  0
171176  2  0     0  0
172177  1  1     0  0
172178  1  0     0  0
173179  1  0     0  0
174180  1  0     0  0
181175  1  6     0  0
179182  1  0     0  0
179183  2  0     0  0
180184  2  0     0  0
180185  1  0     0  0
181186  1  0     0  0
181187  1  0     0  0
182188  1  1     0  0
182189  1  0     0  0
186188  1  0     0  0
186190  2  0     0  0
187191  1  0     0  0
189192  1  0     0  0
192193  2  0     0  0
192194  1  0     0  0
193195  1  0     0  0
194196  2  0     0  0
195197  2  0     0  0
196197  1  0     0  0
197198  1  0     0  0
199200  1  0     0  0
199125  1  0     0  0
199201  1  1     0  0
200202  1  0     0  0
125203  1  0     0  0
201  1  1  0     0  0
201204  2  0     0  0
202205  1  6     0  0
202203  1  0     0  0
132206  1  0     0  0
132207  2  0     0  0
 88158  1  0     0  0
164 43  1  0     0  0
138 59  1  0     0  0
M  END
> <ID>
CHEBI:90630

> <NAME>
omega-conotoxin GVIA

$$$$

Ketcher 12021610262D 1   1.00000     0.00000     0

 45 51  0     1  0            999 V2000
   16.5064   -4.5219    0.0000 C   0  0  0  0  0  0  0  0  0  0  0  0
   16.4937   -3.6173    0.0000 C   0  0  0  0  0  0  0  0  0  0  0  0
   17.1552   -3.9971    0.0000 C   0  0  0  0  0  0  0  0  0  0  0  0
   16.5064   -5.4269    0.0000 C   0  0  0  0  0  0  0  0  0  0  0  0
   15.7342   -4.0653    0.0000 C   0  0  0  0  0  0  0  0  0  0  0  0
   15.3970   -5.0297    0.0000 N   0  0  0  0  0  0  0  0  0  0  0  0
   17.9915   -4.1848    0.0000 C   0  0  0  0  0  0  0  0  0  0  0  0
   17.0826   -3.1477    0.0000 C   0  0  0  0  0  0  0  0  0  0  0  0
   15.7342   -5.8747    0.0000 C   0  0  0  0  0  0  0  0  0  0  0  0
   17.1851   -5.9644    0.0000 C   0  0  0  0  0  0  0  0  0  0  0  0
   14.9403   -4.5219    0.0000 C   0  0  0  0  0  0  0  0  0  0  0  0
   15.7342   -3.1648    0.0000 O   0  0  0  0  0  0  0  0  0  0  0  0
   18.4012   -4.9359    0.0000 C   0  0  0  0  0  0  0  0  0  0  0  0
   15.3584   -6.6558    0.0000 C   0  0  0  0  0  0  0  0  0  0  0  0
   18.4312   -3.4551    0.0000 C   0  0  0  0  0  0  0  0  0  0  0  0
   17.8679   -2.8106    0.0000 C   0  0  0  0  0  0  0  0  0  0  0  0
   14.9403   -5.4269    0.0000 C   0  0  0  0  0  0  0  0  0  0  0  0
   16.0840   -6.6558    0.0000 C   0  0  0  0  0  0  0  0  0  0  0  0
   19.4556   -4.4451    0.0000 C   0  0  0  0  0  0  0  0  0  0  0  0
   19.1779   -5.3841    0.0000 O   0  0  0  0  0  0  0  0  0  0  0  0
   19.7949   -2.8825    0.0000 O   0  0  0  0  0  0  0  0  0  0  0  0
   18.7171   -2.8106    0.0000 C   0  0  0  0  0  0  0  0  0  0  0  0
   19.2548   -2.0808    0.0000 O   0  0  0  0  0  0  0  0  0  0  0  0
   18.9050   -1.2528    0.0000 C   0  0  0  0  0  0  0  0  0  0  0  0
   17.6929   -3.4508    0.0000 H   0  0  0  0  0  0  0  0  0  0  0  0
   16.5449   -6.1906    0.0000 H   0  0  0  0  0  0  0  0  0  0  0  0
   18.8409   -4.1805    0.0000 H   0  0  0  0  0  0  0  0  0  0  0  0
   18.0600   -1.9742    0.0000 O   0  0  0  0  0  0  0  0  0  0  0  0
   18.0385   -5.7553    0.0000 C   0  0  0  0  0  0  0  0  0  0  0  0
   18.4849   -6.5286    0.0000 H   0  0  0  0  0  0  0  0  0  0  0  0
   15.5584   -7.3825    0.0000 O   0  0  0  0  0  0  0  0  0  0  0  0
   15.9249   -8.2009    0.0000 C   0  0  0  0  0  0  0  0  0  0  0  0
   16.9940   -6.8406    0.0000 O   0  0  0  0  0  0  0  0  0  0  0  0
   17.6571   -7.4442    0.0000 C   0  0  0  0  0  0  0  0  0  0  0  0
   20.2214   -4.9564    0.0000 O   0  0  0  0  0  0  0  0  0  0  0  0
   14.9576   -2.7164    0.0000 C   0  0  0  0  0  0  0  0  0  0  0  0
   20.6575   -3.3806    0.0000 C   0  0  0  0  0  0  0  0  0  0  0  0
   21.5202   -2.8825    0.0000 C   0  0  0  0  0  0  0  0  0  0  0  0
   20.6575   -4.3767    0.0000 O   0  0  0  0  0  0  0  0  0  0  0  0
   21.5202   -1.8864    0.0000 C   0  0  0  0  0  0  0  0  0  0  0  0
   22.3829   -1.3884    0.0000 C   0  0  0  0  0  0  0  0  0  0  0  0
   23.2455   -1.8864    0.0000 C   0  0  0  0  0  0  0  0  0  0  0  0
   23.2455   -2.8825    0.0000 C   0  0  0  0  0  0  0  0  0  0  0  0
   22.3829   -3.3806    0.0000 C   0  0  0  0  0  0  0  0  0  0  0  0
   14.5266   -4.5272    0.0000 C   0  0  0  0  0  0  0  0  0  0  0  0
  1  2  1  6     0  0
  1  4  1  0     0  0
 29  2  1  0     0  0
  2  6  1  0     0  0
  3  7  1  0     0  0
  3  8  1  0     0  0
  4  9  1  0     0  0
  4 10  1  0     0  0
  5 11  1  0     0  0
  5 12  1  6     0  0
 29 13  1  0     0  0
  6 14  1  0     0  0
  7 15  1  0     0  0
  8 16  1  0     0  0
  9 17  1  0     0  0
  9 18  1  1     0  0
 13 19  1  0     0  0
 13 20  1  1     0  0
 15 21  1  6     0  0
 16 22  1  0     0  0
 22 23  1  1     0  0
 23 24  1  0     0  0
 29 10  1  0     0  0
  7 13  1  0     0  0
  9 14  1  6     0  0
 11 17  1  0     0  0
 15 16  1  0     0  0
 19 22  1  0     0  0
  3 25  1  1     0  0
  4 26  1  1     0  0
  7 27  1  1     0  0
 16 28  1  1     0  0
 29 30  1  6     0  0
  1  3  1  0     0  0
  5  1  1  0     0  0
 18 31  1  0     0  0
 31 32  1  0     0  0
 10 33  1  6     0  0
 33 34  1  0     0  0
 19 35  1  6     0  0
 12 36  1  0     0  0
 21 37  1  0     0  0
 37 38  1  0     0  0
 37 39  2  0     0  0
 38 40  1  0     0  0
 40 41  2  0     0  0
 41 42  1  0     0  0
 42 43  2  0     0  0
 43 44  1  0     0  0
 44 38  2  0     0  0
  6 45  1  0     0  0
M  END
> <ID>
CHEBI:132634

> <NAME>
benzoylhypaconine

$$$$

Ketcher 12131615582D 1   1.00000     0.00000     0

 51 57  0     1  0            999 V2000
   18.1445   -4.8112    0.0000 C   0  0  0  0  0  0  0  0  0  0  0  0
   18.8118   -4.2726    0.0000 C   0  0  0  0  0  0  0  0  0  0  0  0
   18.1445   -5.7393    0.0000 C   0  0  0  0  0  0  0  0  0  0  0  0
   18.1321   -3.8831    0.0000 C   0  0  0  0  0  0  0  0  0  0  0  0
   17.3490   -4.3430    0.0000 C   0  0  0  0  0  0  0  0  0  0  0  0
   19.6652   -4.4633    0.0000 C   0  0  0  0  0  0  0  0  0  0  0  0
   18.7328   -3.4024    0.0000 C   0  0  0  0  0  0  0  0  0  0  0  0
   17.3490   -6.1993    0.0000 C   0  0  0  0  0  0  0  0  0  0  0  0
   18.8407   -6.2903    0.0000 C   0  0  0  0  0  0  0  0  0  0  0  0
   17.0094   -5.3334    0.0000 N   0  0  0  0  0  0  0  0  0  0  0  0
   16.5411   -4.8112    0.0000 C   0  0  0  0  0  0  0  0  0  0  0  0
   17.3490   -3.4190    0.0000 O   0  0  0  0  0  0  0  0  0  0  0  0
   20.0837   -5.2380    0.0000 C   0  0  0  0  0  0  0  0  0  0  0  0
   20.1126   -3.7174    0.0000 C   0  0  0  0  0  0  0  0  0  0  0  0
   19.5367   -3.0587    0.0000 C   0  0  0  0  0  0  0  0  0  0  0  0
   16.9680   -6.9989    0.0000 C   0  0  0  0  0  0  0  0  0  0  0  0
   16.5411   -5.7393    0.0000 C   0  0  0  0  0  0  0  0  0  0  0  0
   17.7095   -6.9989    0.0000 C   0  0  0  0  0  0  0  0  0  0  0  0
   18.6419   -7.1936    0.0000 O   0  0  0  0  0  0  0  0  0  0  0  0
   16.2099   -4.8733    0.0000 C   0  0  0  0  0  0  0  0  0  0  0  0
   16.5454   -2.9550    0.0000 C   0  0  0  0  0  0  0  0  0  0  0  0
   21.1650   -4.7366    0.0000 C   0  0  0  0  0  0  0  0  0  0  0  0
   20.8834   -5.6980    0.0000 O   0  0  0  0  0  0  0  0  0  0  0  0
   21.7400   -3.9094    0.0000 O   0  0  0  0  0  0  0  0  0  0  0  0
   20.4152   -3.0544    0.0000 C   0  0  0  0  0  0  0  0  0  0  0  0
   19.7314   -2.2008    0.0000 O   0  0  0  0  0  0  0  0  0  0  0  0
   17.7012   -7.9269    0.0000 O   0  0  0  0  0  0  0  0  0  0  0  0
   19.3296   -7.8192    0.0000 C   0  0  0  0  0  0  0  0  0  0  0  0
   15.4100   -5.3334    0.0000 C   0  0  0  0  0  0  0  0  0  0  0  0
   21.1226   -6.5501    0.0000 C   0  0  0  0  0  0  0  0  0  0  0  0
   22.6933   -3.7795    0.0000 C   0  0  0  0  0  0  0  0  0  0  0  0
   20.9621   -2.3086    0.0000 O   0  0  0  0  0  0  0  0  0  0  0  0
   16.9845   -8.3290    0.0000 C   0  0  0  0  0  0  0  0  0  0  0  0
   22.0220   -6.7989    0.0000 C   0  0  0  0  0  0  0  0  0  0  0  0
   20.4104   -7.1297    0.0000 O   0  0  0  0  0  0  0  0  0  0  0  0
   23.1996   -2.9344    0.0000 C   0  0  0  0  0  0  0  0  0  0  0  0
   23.2052   -4.5767    0.0000 O   0  0  0  0  0  0  0  0  0  0  0  0
   20.6017   -1.4593    0.0000 C   0  0  0  0  0  0  0  0  0  0  0  0
   24.0644   -2.9412    0.0000 C   0  0  0  0  0  0  0  0  0  0  0  0
   22.7723   -2.1764    0.0000 C   0  0  0  0  0  0  0  0  0  0  0  0
   24.5133   -2.1936    0.0000 C   0  0  0  0  0  0  0  0  0  0  0  0
   23.2118   -1.4290    0.0000 C   0  0  0  0  0  0  0  0  0  0  0  0
   24.0823   -1.4378    0.0000 C   0  0  0  0  0  0  0  0  0  0  0  0
   18.1819   -6.5182    0.0000 H   0  0  0  0  0  0  0  0  0  0  0  0
   20.5394   -4.4590    0.0000 H   0  0  0  0  0  0  0  0  0  0  0  0
   19.4401   -3.6347    0.0000 H   0  0  0  0  0  0  0  0  0  0  0  0
   19.7108   -6.0791    0.0000 C   0  0  0  0  0  0  0  0  0  0  0  0
   19.8304   -7.1419    0.0000 H   0  0  0  0  0  0  0  0  0  0  0  0
   24.5497   -0.6425    0.0000 O   0  0  0  0  0  0  0  0  0  0  0  0
   25.4720   -0.6496    0.0000 C   0  0  0  0  0  0  0  0  0  0  0  0
   15.7437   -6.2029    0.0000 O   0  0  0  0  0  0  0  0  0  0  0  0
  1  3  1  0     0  0
  1  4  1  6     0  0
  2  6  1  0     0  0
  2  7  1  0     0  0
  2 46  1  1     0  0
  3  8  1  0     0  0
  3  9  1  0     0  0
 47  4  1  0     0  0
  4 10  1  0     0  0
  5 11  1  0     0  0
  5 12  1  6     0  0
  6 13  1  0     0  0
  6 14  1  0     0  0
  7 15  1  0     0  0
  8 16  1  6     0  0
  8 18  1  1     0  0
  9 19  1  6     0  0
 10 20  1  0     0  0
 12 21  1  0     0  0
 13 22  1  0     0  0
 13 23  1  1     0  0
 14 24  1  6     0  0
 15 25  1  0     0  0
 15 26  1  1     0  0
 18 27  1  0     0  0
 19 28  1  0     0  0
 20 29  1  0     0  0
 23 30  1  0     0  0
 24 31  1  0     0  0
 25 32  1  1     0  0
 27 33  1  0     0  0
 30 34  1  0     0  0
 30 35  2  0     0  0
 31 36  1  0     0  0
 31 37  2  0     0  0
 32 38  1  0     0  0
 36 39  2  0     0  0
 36 40  1  0     0  0
 39 41  1  0     0  0
 40 42  2  0     0  0
 41 43  2  0     0  0
  9 47  1  0     0  0
 47 13  1  0     0  0
 10 16  1  0     0  0
 11 17  1  0     0  0
 14 15  1  0     0  0
 42 43  1  0     0  0
  3 44  1  1     0  0
  6 45  1  1     0  0
 25 22  1  0     0  0
  5  1  1  0     0  0
 17  8  1  0     0  0
  2  1  1  0     0  0
 47 48  1  6     0  0
 43 49  1  0     0  0
 49 50  1  0     0  0
 17 51  1  6     0  0
M  END
> <ID>
CHEBI:132640

> <NAME>
yunaconitine

$$$$

Ketcher 11041609502D 1   1.00000     0.00000     0

 72 74  0     1  0            999 V2000
    2.1225   -9.2834    0.0000 C   0  0  0  0  0  0  0  0  0  0  0  0
    2.9841   -8.7860    0.0000 C   0  0  0  0  0  0  0  0  0  0  0  0
    3.8457   -9.2834    0.0000 C   0  0  0  0  0  0  0  0  0  0  0  0
    5.5688   -9.2834    0.0000 C   0  0  0  0  0  0  0  0  0  0  0  0
    7.2920   -9.2833    0.0000 C   0  0  0  0  0  0  0  0  0  0  0  0
    8.1534   -8.7859    0.0000 C   0  0  0  0  0  0  0  0  0  0  0  0
    2.9840   -7.7911    0.0000 O   0  0  0  0  0  0  0  0  0  0  0  0
    8.1534   -7.7911    0.0000 C   0  0  0  0  0  0  0  0  0  0  0  0
    9.0150   -7.2936    0.0000 C   0  0  0  0  0  0  0  0  0  0  0  0
    9.0150  -10.2781    0.0000 C   0  0  0  0  0  0  0  0  0  0  0  0
    9.8767  -10.7756    0.0000 C   0  0  0  0  0  0  0  0  0  0  0  0
    9.8767  -11.7704    0.0000 C   0  0  0  0  0  0  0  0  0  0  0  0
   11.5998  -10.7755    0.0000 C   0  0  0  0  0  0  0  0  0  0  0  0
   12.4612  -10.2781    0.0000 C   0  0  0  0  0  0  0  0  0  0  0  0
   11.5998  -11.7704    0.0000 O   0  0  0  0  0  0  0  0  0  0  0  0
   13.3229  -10.7755    0.0000 C   0  0  0  0  0  0  0  0  0  0  0  0
   13.3229  -11.7704    0.0000 C   0  0  0  0  0  0  0  0  0  0  0  0
   14.1843  -12.2678    0.0000 O   0  0  0  0  0  0  0  0  0  0  0  0
   12.4614  -12.2678    0.0000 O   0  0  0  0  0  0  0  0  0  0  0  0
    8.1534   -9.7808    0.0000 H   0  0  0  0  0  0  0  0  0  0  0  0
   15.0460  -10.7755    0.0000 C   0  0  0  0  0  0  0  0  0  0  0  0
   15.0460  -11.7704    0.0000 O   0  0  0  0  0  0  0  0  0  0  0  0
    9.0150   -6.2988    0.0000 N   0  0  0  0  0  0  0  0  0  0  0  0
    9.8764   -5.8014    0.0000 C   0  0  0  0  0  0  0  0  0  0  0  0
    9.8764   -4.8065    0.0000 C   0  0  0  0  0  0  0  0  0  0  0  0
   11.5996   -5.8014    0.0000 C   0  0  0  0  0  0  0  0  0  0  0  0
   12.4612   -6.2987    0.0000 C   0  0  0  0  0  0  0  0  0  0  0  0
   13.3229   -5.8013    0.0000 N   0  0  0  0  0  0  0  0  0  0  0  0
   14.1842   -6.2987    0.0000 C   0  0  0  0  0  0  0  0  0  0  0  0
   13.3228   -4.8065    0.0000 C   0  0  0  0  0  0  0  0  0  0  0  0
   15.0459   -4.8063    0.0000 O   0  0  0  0  0  0  0  0  0  0  0  0
   10.7382   -4.3090    0.0000 O   0  0  0  0  0  0  0  0  0  0  0  0
    9.0148   -4.3090    0.0000 O   0  0  0  0  0  0  0  0  0  0  0  0
   10.7382   -6.2988    0.0000 C   0  0  0  0  0  0  0  0  0  0  0  0
    9.0150   -9.2833    0.0000 N   0  0  0  0  0  0  0  0  0  0  0  0
    9.8767   -7.7910    0.0000 O   0  0  0  0  0  0  0  0  0  0  0  0
   10.7383  -10.2781    0.0000 N   0  0  0  0  0  0  0  0  0  0  0  0
   12.4612   -7.2936    0.0000 O   0  0  0  0  0  0  0  0  0  0  0  0
   14.1843   -7.2936    0.0000 C   0  0  0  0  0  0  0  0  0  0  0  0
   12.4612   -9.2833    0.0000 C   0  0  0  0  0  0  0  0  0  0  0  0
   14.1843  -10.2781    0.0000 N   0  0  0  0  0  0  0  0  0  0  0  0
   15.9077  -10.2781    0.0000 C   0  0  0  0  0  0  0  0  0  0  0  0
    6.4304   -8.7860    0.0000 C   0  0  0  0  0  0  0  0  0  0  0  0
    7.2919   -7.2936    0.0000 C   0  0  0  0  0  0  0  0  0  0  0  0
    8.1536  -10.7756    0.0000 O   0  0  0  0  0  0  0  0  0  0  0  0
    3.8458  -10.2783    0.0000 C   0  0  0  0  0  0  0  0  0  0  0  0
    5.5688  -10.2781    0.0000 C   0  0  0  0  0  0  0  0  0  0  0  0
    4.7072   -8.7860    0.0000 C   0  0  0  0  0  0  0  0  0  0  0  0
    3.8457   -7.2936    0.0000 C   0  0  0  0  0  0  0  0  0  0  0  0
   15.9074   -9.2832    0.0000 N   0  0  0  0  0  0  0  0  0  0  0  0
   15.9091   -7.6547    0.0000 C   0  0  0  0  0  0  0  0  0  0  0  0
   15.0167   -7.9953    0.0000 C   0  0  0  0  0  0  0  0  0  0  0  0
   16.5005   -8.4692    0.0000 C   0  0  0  0  0  0  0  0  0  0  0  0
   17.4850   -8.4692    0.0000 O   0  0  0  0  0  0  0  0  0  0  0  0
   15.0459   -5.8013    0.0000 C   0  0  0  0  0  0  0  0  0  0  0  0
   15.9074   -6.2987    0.0000 N   0  0  0  0  0  0  0  0  0  0  0  0
   16.7690  -10.7755    0.0000 C   0  0  0  0  0  0  0  0  0  0  0  0
    2.1225  -10.2828    0.0000 C   0  0  0  0  0  0  0  0  0  0  0  0
    2.9880  -10.7826    0.0000 C   0  0  0  0  0  0  0  0  0  0  0  0
    2.9880  -11.7820    0.0000 C   0  0  0  0  0  0  0  0  0  0  0  0
    2.1225  -12.2818    0.0000 C   0  0  0  0  0  0  0  0  0  0  0  0
    1.2570  -11.7820    0.0000 C   0  0  0  0  0  0  0  0  0  0  0  0
    1.2570  -10.7826    0.0000 C   0  0  0  0  0  0  0  0  0  0  0  0
   16.7690  -11.7749    0.0000 C   0  0  0  0  0  0  0  0  0  0  0  0
   15.9035  -12.2746    0.0000 C   0  0  0  0  0  0  0  0  0  0  0  0
   17.6345  -12.2746    0.0000 C   0  0  0  0  0  0  0  0  0  0  0  0
    9.0150  -12.2678    0.0000 C   0  0  0  0  0  0  0  0  0  0  0  0
    9.0150  -13.2628    0.0000 C   0  0  0  0  0  0  0  0  0  0  0  0
    8.1534  -11.7704    0.0000 C   0  0  0  0  0  0  0  0  0  0  0  0
    8.1534  -13.7602    0.0000 C   0  0  0  0  0  0  0  0  0  0  0  0
    7.2918  -12.2678    0.0000 C   0  0  0  0  0  0  0  0  0  0  0  0
    7.2918  -13.2628    0.0000 C   0  0  0  0  0  0  0  0  0  0  0  0
  1  2  1  0     0  0
  2  7  1  6     0  0
  2  3  1  0     0  0
  3 46  1  6     0  0
  3 48  1  0     0  0
  4 47  1  0     0  0
 48  4  2  0     0  0
  4 43  1  0     0  0
  5  6  1  0     0  0
 43  5  2  0     0  0
  6 35  1  0     0  0
  6 20  1  6     0  0
  6  8  1  0     0  0
  7 49  1  0     0  0
  8  9  1  0     0  0
  8 44  1  6     0  0
  9 36  2  0     0  0
  9 23  1  0     0  0
 35 10  1  0     0  0
 10 11  1  0     0  0
 10 45  2  0     0  0
 11 12  1  1     0  0
 11 37  1  0     0  0
 37 13  1  0     0  0
 13 14  1  0     0  0
 13 15  2  0     0  0
 14 16  1  0     0  0
 14 40  1  1     0  0
 16 17  1  1     0  0
 16 41  1  0     0  0
 17 18  1  0     0  0
 17 19  2  0     0  0
 41 21  1  0     0  0
 21 42  1  0     0  0
 21 22  2  0     0  0
 23 24  1  0     0  0
 24 25  1  1     0  0
 24 34  1  0     0  0
 25 32  1  0     0  0
 25 33  2  0     0  0
 34 26  1  0     0  0
 26 27  1  0     0  0
 27 28  1  0     0  0
 27 38  2  0     0  0
 28 29  1  0     0  0
 28 30  1  0     0  0
 29 55  1  0     0  0
 29 39  2  0     0  0
 55 31  2  0     0  0
 42 57  1  1     0  0
 42 50  1  0     0  0
 50 53  1  0     0  0
 51 52  1  1     0  0
 53 51  1  0     0  0
 56 51  1  0     0  0
 53 54  2  0     0  0
 55 56  1  0     0  0
  1 58  1  0     0  0
 58 59  1  0     0  0
 59 60  2  0     0  0
 60 61  1  0     0  0
 61 62  2  0     0  0
 62 63  1  0     0  0
 63 58  2  0     0  0
 57 64  1  0     0  0
 64 65  1  0     0  0
 64 66  1  0     0  0
 68 67  1  0     0  0
 69 67  2  0     0  0
 70 68  2  0     0  0
 71 69  1  0     0  0
 72 70  1  0     0  0
 72 71  2  0     0  0
 12 67  1  0     0  0
M  END
> <ID>
CHEBI:133297

> <NAME>
microcystin LF

$$$$

Ketcher 11031616282D 1   1.00000     0.00000     0

 75 78  0     1  0            999 V2000
    2.1230   -9.2859    0.0000 C   0  0  0  0  0  0  0  0  0  0  0  0
    2.9849   -8.7883    0.0000 C   0  0  0  0  0  0  0  0  0  0  0  0
    3.8467   -9.2859    0.0000 C   0  0  0  0  0  0  0  0  0  0  0  0
    5.5703   -9.2859    0.0000 C   0  0  0  0  0  0  0  0  0  0  0  0
    7.2939   -9.2858    0.0000 C   0  0  0  0  0  0  0  0  0  0  0  0
    8.1556   -8.7883    0.0000 C   0  0  0  0  0  0  0  0  0  0  0  0
    2.9848   -7.7932    0.0000 O   0  0  0  0  0  0  0  0  0  0  0  0
    8.1556   -7.7932    0.0000 C   0  0  0  0  0  0  0  0  0  0  0  0
    9.0174   -7.2956    0.0000 C   0  0  0  0  0  0  0  0  0  0  0  0
    9.0174  -10.2809    0.0000 C   0  0  0  0  0  0  0  0  0  0  0  0
    9.8793  -10.7784    0.0000 C   0  0  0  0  0  0  0  0  0  0  0  0
    9.8793  -11.7735    0.0000 C   0  0  0  0  0  0  0  0  0  0  0  0
   11.6029  -10.7783    0.0000 C   0  0  0  0  0  0  0  0  0  0  0  0
   12.4645  -10.2808    0.0000 C   0  0  0  0  0  0  0  0  0  0  0  0
   11.6029  -11.7735    0.0000 O   0  0  0  0  0  0  0  0  0  0  0  0
   13.3264  -10.7783    0.0000 C   0  0  0  0  0  0  0  0  0  0  0  0
   13.3264  -11.7735    0.0000 C   0  0  0  0  0  0  0  0  0  0  0  0
   14.1881  -12.2711    0.0000 O   0  0  0  0  0  0  0  0  0  0  0  0
   12.4647  -12.2711    0.0000 O   0  0  0  0  0  0  0  0  0  0  0  0
    8.1556   -9.7834    0.0000 H   0  0  0  0  0  0  0  0  0  0  0  0
   15.0500  -10.7783    0.0000 C   0  0  0  0  0  0  0  0  0  0  0  0
   15.0500  -11.7735    0.0000 O   0  0  0  0  0  0  0  0  0  0  0  0
    9.0174   -6.3005    0.0000 N   0  0  0  0  0  0  0  0  0  0  0  0
    9.8791   -5.8029    0.0000 C   0  0  0  0  0  0  0  0  0  0  0  0
    9.8791   -4.8078    0.0000 C   0  0  0  0  0  0  0  0  0  0  0  0
   11.6026   -5.8029    0.0000 C   0  0  0  0  0  0  0  0  0  0  0  0
   12.4645   -6.3004    0.0000 C   0  0  0  0  0  0  0  0  0  0  0  0
   13.3264   -5.8028    0.0000 N   0  0  0  0  0  0  0  0  0  0  0  0
   14.1880   -6.3004    0.0000 C   0  0  0  0  0  0  0  0  0  0  0  0
   13.3263   -4.8078    0.0000 C   0  0  0  0  0  0  0  0  0  0  0  0
   15.0499   -4.8076    0.0000 O   0  0  0  0  0  0  0  0  0  0  0  0
   10.7410   -4.3101    0.0000 O   0  0  0  0  0  0  0  0  0  0  0  0
    9.0172   -4.3101    0.0000 O   0  0  0  0  0  0  0  0  0  0  0  0
   10.7410   -6.3005    0.0000 C   0  0  0  0  0  0  0  0  0  0  0  0
    9.0174   -9.2858    0.0000 N   0  0  0  0  0  0  0  0  0  0  0  0
    9.8793   -7.7931    0.0000 O   0  0  0  0  0  0  0  0  0  0  0  0
   10.7412  -10.2809    0.0000 N   0  0  0  0  0  0  0  0  0  0  0  0
   12.4645   -7.2955    0.0000 O   0  0  0  0  0  0  0  0  0  0  0  0
   14.1881   -7.2955    0.0000 C   0  0  0  0  0  0  0  0  0  0  0  0
   12.4645   -9.2858    0.0000 C   0  0  0  0  0  0  0  0  0  0  0  0
   14.1881  -10.2808    0.0000 N   0  0  0  0  0  0  0  0  0  0  0  0
   15.9119  -10.2808    0.0000 C   0  0  0  0  0  0  0  0  0  0  0  0
    6.4321   -8.7883    0.0000 C   0  0  0  0  0  0  0  0  0  0  0  0
    7.2939   -7.2956    0.0000 C   0  0  0  0  0  0  0  0  0  0  0  0
    8.1557  -10.7784    0.0000 O   0  0  0  0  0  0  0  0  0  0  0  0
    3.8468  -10.2810    0.0000 C   0  0  0  0  0  0  0  0  0  0  0  0
    5.5703  -10.2809    0.0000 C   0  0  0  0  0  0  0  0  0  0  0  0
    4.7085   -8.7883    0.0000 C   0  0  0  0  0  0  0  0  0  0  0  0
    3.8467   -7.2956    0.0000 C   0  0  0  0  0  0  0  0  0  0  0  0
   15.9117   -9.2857    0.0000 N   0  0  0  0  0  0  0  0  0  0  0  0
   15.9133   -7.6567    0.0000 C   0  0  0  0  0  0  0  0  0  0  0  0
   15.0207   -7.9974    0.0000 C   0  0  0  0  0  0  0  0  0  0  0  0
   16.5048   -8.4715    0.0000 C   0  0  0  0  0  0  0  0  0  0  0  0
   17.4896   -8.4715    0.0000 O   0  0  0  0  0  0  0  0  0  0  0  0
   15.0499   -5.8028    0.0000 C   0  0  0  0  0  0  0  0  0  0  0  0
   15.9117   -6.3004    0.0000 N   0  0  0  0  0  0  0  0  0  0  0  0
   16.7735  -10.7783    0.0000 C   0  0  0  0  0  0  0  0  0  0  0  0
    2.1230  -10.2856    0.0000 C   0  0  0  0  0  0  0  0  0  0  0  0
    2.9888  -10.7855    0.0000 C   0  0  0  0  0  0  0  0  0  0  0  0
    2.9888  -11.7851    0.0000 C   0  0  0  0  0  0  0  0  0  0  0  0
    2.1230  -12.2850    0.0000 C   0  0  0  0  0  0  0  0  0  0  0  0
    1.2573  -11.7851    0.0000 C   0  0  0  0  0  0  0  0  0  0  0  0
    1.2573  -10.7855    0.0000 C   0  0  0  0  0  0  0  0  0  0  0  0
   16.7735  -11.7780    0.0000 C   0  0  0  0  0  0  0  0  0  0  0  0
   15.9077  -12.2779    0.0000 C   0  0  0  0  0  0  0  0  0  0  0  0
   17.6392  -12.2779    0.0000 C   0  0  0  0  0  0  0  0  0  0  0  0
    9.0174  -12.2711    0.0000 C   0  0  0  0  0  0  0  0  0  0  0  0
    8.9134  -13.2608    0.0000 C   0  0  0  0  0  0  0  0  0  0  0  0
    8.1083  -11.8664    0.0000 C   0  0  0  0  0  0  0  0  0  0  0  0
    7.9400  -13.4678    0.0000 C   0  0  0  0  0  0  0  0  0  0  0  0
    7.4424  -12.6060    0.0000 N   0  0  0  0  0  0  0  0  0  0  0  0
    9.5793  -14.0004    0.0000 C   0  0  0  0  0  0  0  0  0  0  0  0
    9.2717  -14.9468    0.0000 C   0  0  0  0  0  0  0  0  0  0  0  0
    7.6325  -14.4141    0.0000 C   0  0  0  0  0  0  0  0  0  0  0  0
    8.2983  -15.1537    0.0000 C   0  0  0  0  0  0  0  0  0  0  0  0
  1  2  1  0     0  0
  2  7  1  6     0  0
  2  3  1  0     0  0
  3 46  1  6     0  0
  3 48  1  0     0  0
  4 47  1  0     0  0
 48  4  2  0     0  0
  4 43  1  0     0  0
  5  6  1  0     0  0
 43  5  2  0     0  0
  6 35  1  0     0  0
  6 20  1  6     0  0
  6  8  1  0     0  0
  7 49  1  0     0  0
  8  9  1  0     0  0
  8 44  1  6     0  0
  9 36  2  0     0  0
  9 23  1  0     0  0
 35 10  1  0     0  0
 10 11  1  0     0  0
 10 45  2  0     0  0
 11 12  1  1     0  0
 11 37  1  0     0  0
 37 13  1  0     0  0
 13 14  1  0     0  0
 13 15  2  0     0  0
 14 16  1  0     0  0
 14 40  1  1     0  0
 16 17  1  1     0  0
 16 41  1  0     0  0
 17 18  1  0     0  0
 17 19  2  0     0  0
 41 21  1  0     0  0
 21 42  1  0     0  0
 21 22  2  0     0  0
 23 24  1  0     0  0
 24 25  1  1     0  0
 24 34  1  0     0  0
 25 32  1  0     0  0
 25 33  2  0     0  0
 34 26  1  0     0  0
 26 27  1  0     0  0
 27 28  1  0     0  0
 27 38  2  0     0  0
 28 29  1  0     0  0
 28 30  1  0     0  0
 29 55  1  0     0  0
 29 39  2  0     0  0
 55 31  2  0     0  0
 42 57  1  1     0  0
 42 50  1  0     0  0
 50 53  1  0     0  0
 51 52  1  1     0  0
 53 51  1  0     0  0
 56 51  1  0     0  0
 53 54  2  0     0  0
 55 56  1  0     0  0
  1 58  1  0     0  0
 58 59  1  0     0  0
 59 60  2  0     0  0
 60 61  1  0     0  0
 61 62  2  0     0  0
 62 63  1  0     0  0
 63 58  2  0     0  0
 57 64  1  0     0  0
 64 65  1  0     0  0
 64 66  1  0     0  0
 68 67  1  0     0  0
 69 67  2  0     0  0
 71 69  1  0     0  0
 71 70  1  0     0  0
 12 67  1  0     0  0
 72 68  1  0     0  0
 70 68  2  0     0  0
 73 72  2  0     0  0
 74 70  1  0     0  0
 75 73  1  0     0  0
 75 74  2  0     0  0
M  END
> <ID>
CHEBI:133298

> <NAME>
microcystin LW

$$$$

Ketcher 11281616052D 1   1.00000     0.00000     0

 48 47  0     1  0            999 V2000
    4.6388  -28.3431    0.0000 C   0  0  0  0  0  0  0  0  0  0  0  0
    5.4961  -27.8482    0.0000 C   0  0  0  0  0  0  0  0  0  0  0  0
    6.3534  -28.3431    0.0000 C   0  0  0  0  0  0  0  0  0  0  0  0
    7.2108  -27.8482    0.0000 C   0  0  0  0  0  0  0  0  0  0  0  0
   10.6400  -27.8482    0.0000 C   0  0  0  0  0  0  0  0  0  0  0  0
   12.3546  -27.8482    0.0000 C   0  0  0  0  0  0  0  0  0  0  0  0
   14.0691  -27.8482    0.0000 C   0  0  0  0  0  0  0  0  0  0  0  0
   14.9264  -28.3431    0.0000 C   0  0  0  0  0  0  0  0  0  0  0  0
   15.7838  -27.8482    0.0000 C   0  0  0  0  0  0  0  0  0  0  0  0
   16.6409  -28.3431    0.0000 C   0  0  0  0  0  0  0  0  0  0  0  0
   18.3556  -28.3431    0.0000 C   0  0  0  0  0  0  0  0  0  0  0  0
   20.9276  -27.8482    0.0000 C   0  0  0  0  0  0  0  0  0  0  0  0
    8.0679  -28.3431    0.0000 C   0  0  0  0  0  0  0  0  0  0  0  0
    8.0679  -29.3331    0.0000 C   0  0  0  0  0  0  0  0  0  0  0  0
    8.9253  -27.8482    0.0000 C   0  0  0  0  0  0  0  0  0  0  0  0
    8.9253  -26.8583    0.0000 O   0  0  0  0  0  0  0  0  0  0  0  0
    9.7826  -25.3734    0.0000 O   0  0  0  0  0  0  0  0  0  0  0  0
    9.7826  -26.3633    0.0000 C   0  0  0  0  0  0  0  0  0  0  0  0
   10.6400  -26.8583    0.0000 C   0  0  0  0  0  0  0  0  0  0  0  0
   11.4972  -26.3633    0.0000 C   0  0  0  0  0  0  0  0  0  0  0  0
   10.6400  -24.8784    0.0000 O   0  0  0  0  0  0  0  0  0  0  0  0
   11.4972  -25.3734    0.0000 C   0  0  0  0  0  0  0  0  0  0  0  0
   12.3546  -24.8784    0.0000 O   0  0  0  0  0  0  0  0  0  0  0  0
   12.3546  -26.8583    0.0000 C   0  0  0  0  0  0  0  0  0  0  0  0
   14.0691  -26.8583    0.0000 O   0  0  0  0  0  0  0  0  0  0  0  0
   13.2118  -26.3633    0.0000 C   0  0  0  0  0  0  0  0  0  0  0  0
   13.2118  -25.3734    0.0000 O   0  0  0  0  0  0  0  0  0  0  0  0
   11.4972  -28.3431    0.0000 C   0  0  0  0  0  0  0  0  0  0  0  0
   11.4972  -29.3331    0.0000 C   0  0  0  0  0  0  0  0  0  0  0  0
    9.7826  -28.3431    0.0000 C   0  0  0  0  0  0  0  0  0  0  0  0
    9.7826  -29.8068    0.0000 O   0  0  0  0  0  0  0  0  0  0  0  0
   11.4972  -29.8068    0.0000 C   0  0  0  0  0  0  0  0  0  0  0  0
   13.2118  -29.8068    0.0000 C   0  0  0  0  0  0  0  0  0  0  0  0
   10.6400  -30.3018    0.0000 C   0  0  0  0  0  0  0  0  0  0  0  0
   10.6400  -31.2917    0.0000 O   0  0  0  0  0  0  0  0  0  0  0  0
   12.3546  -30.3018    0.0000 C   0  0  0  0  0  0  0  0  0  0  0  0
   11.4972  -31.7867    0.0000 O   0  0  0  0  0  0  0  0  0  0  0  0
   12.3546  -31.2917    0.0000 C   0  0  0  0  0  0  0  0  0  0  0  0
   13.2118  -31.7867    0.0000 O   0  0  0  0  0  0  0  0  0  0  0  0
   14.0691  -31.2917    0.0000 O   0  0  0  0  0  0  0  0  0  0  0  0
   14.0691  -30.3018    0.0000 C   0  0  0  0  0  0  0  0  0  0  0  0
   14.9264  -29.8068    0.0000 O   0  0  0  0  0  0  0  0  0  0  0  0
   20.0702  -28.3431    0.0000 C   0  0  0  0  0  0  0  0  0  0  0  0
   20.0702  -29.3331    0.0000 N   0  0  0  0  0  0  0  0  0  0  0  0
   19.2130  -27.8482    0.0000 C   0  0  0  0  0  0  0  0  0  0  0  0
   19.2130  -26.8583    0.0000 O   0  0  0  0  0  0  0  0  0  0  0  0
   17.4983  -27.8482    0.0000 C   0  0  0  0  0  0  0  0  0  0  0  0
   13.2118  -28.3431    0.0000 C   0  0  0  0  0  0  0  0  0  0  0  0
  1  2  1  0     0  0
  2  3  1  0     0  0
  3  4  1  0     0  0
  4 13  1  0     0  0
 13 15  1  0     0  0
 15 30  1  0     0  0
 30  5  1  0     0  0
  5 28  1  0     0  0
 28  6  1  0     0  0
  6 48  1  0     0  0
 48  7  1  0     0  0
  7  8  1  0     0  0
  8  9  1  0     0  0
  9 10  1  0     0  0
 10 47  1  0     0  0
 47 11  1  0     0  0
 11 45  1  0     0  0
 45 43  1  0     0  0
 43 12  1  0     0  0
 13 14  1  6     0  0
 15 16  1  1     0  0
 16 18  1  0     0  0
 18 17  2  0     0  0
 18 19  1  0     0  0
 19 20  1  0     0  0
 20 24  1  0     0  0
 20 22  1  6     0  0
 22 21  2  0     0  0
 22 23  1  0     0  0
 24 26  1  0     0  0
 26 25  1  0     0  0
 26 27  2  0     0  0
 28 29  1  6     0  0
 30 31  1  6     0  0
 31 34  1  0     0  0
 34 32  1  0     0  0
 32 36  1  0     0  0
 36 33  1  0     0  0
 33 41  1  0     0  0
 34 35  2  0     0  0
 36 38  1  1     0  0
 38 37  2  0     0  0
 38 39  1  0     0  0
 41 40  2  0     0  0
 41 42  1  0     0  0
 43 44  1  6     0  0
 45 46  1  6     0  0
M  END
> <ID>
CHEBI:133832

> <NAME>
fumonisin B4

$$$$

Ketcher 12151612052D 1   1.00000     0.00000     0

 50 49  0     1  0            999 V2000
    4.6388  -28.3431    0.0000 C   0  0  0  0  0  0  0  0  0  0  0  0
    5.4961  -27.8482    0.0000 C   0  0  0  0  0  0  0  0  0  0  0  0
    6.3534  -28.3431    0.0000 C   0  0  0  0  0  0  0  0  0  0  0  0
    7.2108  -27.8482    0.0000 C   0  0  0  0  0  0  0  0  0  0  0  0
   10.6400  -27.8482    0.0000 C   0  0  0  0  0  0  0  0  0  0  0  0
   12.3546  -27.8482    0.0000 C   0  0  0  0  0  0  0  0  0  0  0  0
   14.0691  -27.8482    0.0000 C   0  0  0  0  0  0  0  0  0  0  0  0
   14.9264  -28.3431    0.0000 C   0  0  0  0  0  0  0  0  0  0  0  0
   15.7838  -27.8482    0.0000 C   0  0  0  0  0  0  0  0  0  0  0  0
   16.6409  -28.3431    0.0000 C   0  0  0  0  0  0  0  0  0  0  0  0
   18.3556  -28.3431    0.0000 C   0  0  0  0  0  0  0  0  0  0  0  0
   20.9276  -27.8482    0.0000 C   0  0  0  0  0  0  0  0  0  0  0  0
    8.0679  -28.3431    0.0000 C   0  0  0  0  0  0  0  0  0  0  0  0
    8.0679  -29.3331    0.0000 C   0  0  0  0  0  0  0  0  0  0  0  0
    8.9253  -27.8482    0.0000 C   0  0  0  0  0  0  0  0  0  0  0  0
    8.9253  -26.8583    0.0000 O   0  0  0  0  0  0  0  0  0  0  0  0
    9.7826  -25.3734    0.0000 O   0  0  0  0  0  0  0  0  0  0  0  0
    9.7826  -26.3633    0.0000 C   0  0  0  0  0  0  0  0  0  0  0  0
   10.6400  -26.8583    0.0000 C   0  0  0  0  0  0  0  0  0  0  0  0
   11.4972  -26.3633    0.0000 C   0  0  0  0  0  0  0  0  0  0  0  0
   10.6400  -24.8784    0.0000 O   0  0  0  0  0  0  0  0  0  0  0  0
   11.4972  -25.3734    0.0000 C   0  0  0  0  0  0  0  0  0  0  0  0
   12.3546  -24.8784    0.0000 O   0  0  0  0  0  0  0  0  0  0  0  0
   12.3546  -26.8583    0.0000 C   0  0  0  0  0  0  0  0  0  0  0  0
   14.0691  -26.8583    0.0000 O   0  0  0  0  0  0  0  0  0  0  0  0
   13.2118  -26.3633    0.0000 C   0  0  0  0  0  0  0  0  0  0  0  0
   13.2118  -25.3734    0.0000 O   0  0  0  0  0  0  0  0  0  0  0  0
   11.4972  -28.3431    0.0000 C   0  0  0  0  0  0  0  0  0  0  0  0
   11.4972  -29.3331    0.0000 C   0  0  0  0  0  0  0  0  0  0  0  0
    9.7826  -28.3431    0.0000 C   0  0  0  0  0  0  0  0  0  0  0  0
    9.7826  -29.8068    0.0000 O   0  0  0  0  0  0  0  0  0  0  0  0
   11.4972  -29.8068    0.0000 C   0  0  0  0  0  0  0  0  0  0  0  0
   13.2118  -29.8068    0.0000 C   0  0  0  0  0  0  0  0  0  0  0  0
   10.6400  -30.3018    0.0000 C   0  0  0  0  0  0  0  0  0  0  0  0
   10.6400  -31.2917    0.0000 O   0  0  0  0  0  0  0  0  0  0  0  0
   12.3546  -30.3018    0.0000 C   0  0  0  0  0  0  0  0  0  0  0  0
   11.4972  -31.7867    0.0000 O   0  0  0  0  0  0  0  0  0  0  0  0
   12.3546  -31.2917    0.0000 C   0  0  0  0  0  0  0  0  0  0  0  0
   13.2118  -31.7867    0.0000 O   0  0  0  0  0  0  0  0  0  0  0  0
   14.0691  -31.2917    0.0000 O   0  0  0  0  0  0  0  0  0  0  0  0
   14.0691  -30.3018    0.0000 C   0  0  0  0  0  0  0  0  0  0  0  0
   14.9264  -29.8068    0.0000 O   0  0  0  0  0  0  0  0  0  0  0  0
   20.0702  -28.3431    0.0000 C   0  0  0  0  0  0  0  0  0  0  0  0
   20.0702  -29.3331    0.0000 N   0  0  0  0  0  0  0  0  0  0  0  0
   19.2130  -27.8482    0.0000 C   0  0  0  0  0  0  0  0  0  0  0  0
   19.2130  -26.8583    0.0000 O   0  0  0  0  0  0  0  0  0  0  0  0
   17.4983  -27.8482    0.0000 C   0  0  0  0  0  0  0  0  0  0  0  0
   13.2118  -28.3431    0.0000 C   0  0  0  0  0  0  0  0  0  0  0  0
   18.3556  -29.3431    0.0000 O   0  0  0  0  0  0  0  0  0  0  0  0
   17.4983  -26.8482    0.0000 O   0  0  0  0  0  0  0  0  0  0  0  0
  1  2  1  0     0  0
  2  3  1  0     0  0
  3  4  1  0     0  0
  4 13  1  0     0  0
 13 15  1  0     0  0
 15 30  1  0     0  0
 30  5  1  0     0  0
  5 28  1  0     0  0
 28  6  1  0     0  0
  6 48  1  0     0  0
 48  7  1  0     0  0
  7  8  1  0     0  0
  8  9  1  0     0  0
  9 10  1  0     0  0
 10 47  1  0     0  0
 47 11  1  0     0  0
 11 45  1  0     0  0
 45 43  1  0     0  0
 43 12  1  0     0  0
 13 14  1  6     0  0
 15 16  1  1     0  0
 16 18  1  0     0  0
 18 17  2  0     0  0
 18 19  1  0     0  0
 19 20  1  0     0  0
 20 24  1  0     0  0
 20 22  1  6     0  0
 22 21  2  0     0  0
 22 23  1  0     0  0
 24 26  1  0     0  0
 26 25  1  0     0  0
 26 27  2  0     0  0
 28 29  1  6     0  0
 30 31  1  6     0  0
 31 34  1  0     0  0
 34 32  1  0     0  0
 32 36  1  0     0  0
 36 33  1  0     0  0
 33 41  1  0     0  0
 34 35  2  0     0  0
 36 38  1  1     0  0
 38 37  2  0     0  0
 38 39  1  0     0  0
 41 40  2  0     0  0
 41 42  1  0     0  0
 43 44  1  6     0  0
 45 46  1  6     0  0
 11 49  1  0     0  0
 47 50  1  0     0  0
M  END
> <ID>
CHEBI:134060

> <NAME>
fumonisin B6

$$$$

Ketcher 08021809562D 1   1.00000     0.00000     0

 27 29  0     1  0            999 V2000
   18.3185   -1.4552    0.0000 C   0  0  0  0  0  0  0  0  0  0  0  0
   17.4524   -1.9552    0.0000 C   0  0  0  0  0  0  0  0  0  0  0  0
   17.4524   -2.9553    0.0000 C   0  0  0  0  0  0  0  0  0  0  0  0
   18.3185   -3.4553    0.0000 C   0  0  0  0  0  0  0  0  0  0  0  0
   19.1845   -2.9553    0.0000 C   0  0  0  0  0  0  0  0  0  0  0  0
   19.1845   -1.9552    0.0000 C   0  0  0  0  0  0  0  0  0  0  0  0
   20.0505   -1.4552    0.0000 C   0  0  0  0  0  0  0  0  0  0  0  0
   21.7825   -0.4553    0.0000 O   0  0  0  0  0  0  0  0  0  0  0  0
   21.7825   -1.4552    0.0000 C   0  0  0  0  0  0  0  0  0  0  0  0
   22.6485   -1.9552    0.0000 O   0  0  0  0  0  0  0  0  0  0  0  0
   20.9165   -1.9552    0.0000 C   0  0  0  0  0  0  0  0  0  0  0  0
   20.9165   -2.9553    0.0000 N   0  0  0  0  0  0  0  0  0  0  0  0
   22.6485   -2.9553    0.0000 O   0  0  0  0  0  0  0  0  0  0  0  0
   21.7825   -3.4552    0.0000 C   0  0  0  0  0  0  0  0  0  0  0  0
   21.7825   -4.4552    0.0000 C   0  0  0  0  0  0  0  0  0  0  0  0
   20.9165   -4.9553    0.0000 C   0  0  0  0  0  0  0  0  0  0  0  0
   22.6485   -4.9553    0.0000 C   0  0  0  0  0  0  0  0  0  0  0  0
   22.6485   -5.9553    0.0000 C   0  0  0  0  0  0  0  0  0  0  0  0
   21.7825   -6.4553    0.0000 C   0  0  0  0  0  0  0  0  0  0  0  0
   21.7825   -7.4553    0.0000 C   0  0  0  0  0  0  0  0  0  0  0  0
   23.5145   -6.4553    0.0000 C   0  0  0  0  0  0  0  0  0  0  0  0
   24.3806   -5.9553    0.0000 O   0  0  0  0  0  0  0  0  0  0  0  0
   23.5145   -7.4553    0.0000 O   0  0  0  0  0  0  0  0  0  0  0  0
   20.9165   -5.9553    0.0000 C   0  0  0  0  0  0  0  0  0  0  0  0
   22.6485   -7.9553    0.0000 C   0  0  0  0  0  0  0  0  0  0  0  0
   22.6485   -8.9553    0.0000 C   0  0  0  0  0  0  0  0  0  0  0  0
   23.5145   -4.4554    0.0000 O   0  0  0  0  0  0  0  0  0  0  0  0
  1  2  2  0     0  0
  1  6  1  0     0  0
  2  3  1  0     0  0
  3  4  2  0     0  0
  4  5  1  0     0  0
  5  6  2  0     0  0
  6  7  1  0     0  0
  7 11  1  0     0  0
 11  9  1  0     0  0
  9  8  2  0     0  0
  9 10  1  0     0  0
 11 12  1  1     0  0
 12 14  1  0     0  0
 14 13  2  0     0  0
 14 15  1  0     0  0
 15 16  2  0     0  0
 15 17  1  0     0  0
 16 24  1  0     0  0
 24 19  2  0     0  0
 18 17  2  0     0  0
 18 21  1  0     0  0
 18 19  1  0     0  0
 19 20  1  0     0  0
 20 25  1  0     0  0
 25 23  1  0     0  0
 23 21  1  0     0  0
 21 22  2  0     0  0
 25 26  1  6     0  0
 17 27  1  0     0  0
M  END
> <ID>
CHEBI:141524

> <NAME>
ochratoxin B

$$$$

Ketcher 06211908552D 1   1.00000     0.00000     0

 28 32  0     1  0            999 V2000
    7.2383   -5.8098    0.0000 C   0  0  0  0  0  0  0  0  0  0  0  0
    7.2383   -6.8113    0.0000 C   0  0  0  0  0  0  0  0  0  0  0  0
    6.3709   -5.3091    0.0000 C   0  0  0  0  0  0  0  0  0  0  0  0
    6.3709   -7.3121    0.0000 C   0  0  0  0  0  0  0  0  0  0  0  0
    5.5036   -5.8098    0.0000 C   0  0  0  0  0  0  0  0  0  0  0  0
    5.5036   -6.8113    0.0000 C   0  0  0  0  0  0  0  0  0  0  0  0
    8.1055   -7.3121    0.0000 C   0  0  0  0  0  0  0  0  0  0  0  0
    8.1054   -8.3137    0.0000 C   0  0  0  0  0  0  0  0  0  0  0  0
    6.3708   -8.3135    0.0000 C   0  0  0  0  0  0  0  0  0  0  0  0
    7.2380   -8.8144    0.0000 C   0  0  0  0  0  0  0  0  0  0  0  0
    5.5035   -8.8142    0.0000 C   0  0  0  0  0  0  0  0  0  0  0  0
    5.5035   -9.8157    0.0000 C   0  0  0  0  0  0  0  0  0  0  0  0
    7.2380   -9.8157    0.0000 C   0  0  0  0  0  0  0  0  0  0  0  0
    6.3707  -10.3164    0.0000 C   0  0  0  0  0  0  0  0  0  0  0  0
    6.3708   -4.3076    0.0000 O   0  0  0  0  0  0  0  0  0  0  0  0
    4.6363   -5.3091    0.0000 O   0  0  0  0  0  0  0  0  0  0  0  0
    3.7689   -5.8098    0.0000 C   0  0  0  0  0  0  0  0  0  0  0  0
    5.5035   -3.8069    0.0000 C   0  0  0  0  0  0  0  0  0  0  0  0
    4.6362  -10.3164    0.0000 O   0  0  0  0  0  0  0  0  0  0  0  0
    3.7689   -9.8156    0.0000 C   0  0  0  0  0  0  0  0  0  0  0  0
    8.9729   -6.8115    0.0000 C   0  0  0  0  0  0  0  0  0  0  0  0
    9.8402   -7.3124    0.0000 C   0  0  0  0  0  0  0  0  0  0  0  0
    8.9726   -8.8145    0.0000 C   0  0  0  0  0  0  0  0  0  0  0  0
    9.8400   -8.3139    0.0000 N   0  0  0  0  0  0  0  0  0  0  0  0
   10.7926   -7.0032    0.0000 C   0  0  0  0  0  0  0  0  0  0  0  0
   11.3812   -7.8134    0.0000 C   0  0  0  0  0  0  0  0  0  0  0  0
   10.7925   -8.6235    0.0000 C   0  0  0  0  0  0  0  0  0  0  0  0
    9.8631   -6.3585    0.0000 H   0  0  0  0  0  0  0  0  0  0  0  0
  2  1  1  0     0  0
  3  1  2  0     0  0
  4  2  2  0     0  0
  5  3  1  0     0  0
  6  4  1  0     0  0
  6  5  2  0     0  0
  7  2  1  0     0  0
  8  7  2  0     0  0
  9  4  1  0     0  0
 10  8  1  0     0  0
 11  9  1  0     0  0
 10  9  2  0     0  0
 12 11  2  0     0  0
 13 10  1  0     0  0
 14 12  1  0     0  0
 14 13  2  0     0  0
  3 15  1  0     0  0
  5 16  1  0     0  0
 16 17  1  0     0  0
 15 18  1  0     0  0
 12 19  1  0     0  0
 19 20  1  0     0  0
 21  7  1  0     0  0
 22 21  1  0     0  0
 23  8  1  0     0  0
 24 23  1  0     0  0
 25 22  1  0     0  0
 24 22  1  0     0  0
 26 25  1  0     0  0
 27 24  1  0     0  0
 27 26  1  0     0  0
 22 28  1  6     0  0
M  END
> <ID>
CHEBI:143911

> <NAME>
(-)-antofine

$$$$

Ketcher 01062013232D 1   1.00000     0.00000     0

 33 36  0     1  0            999 V2000
   11.7982   -6.3032    0.0000 N   0  0  0  0  0  0  0  0  0  0  0  0
   11.7982   -7.3024    0.0000 C   0  0  0  0  0  0  0  0  0  0  0  0
   10.9326   -5.8035    0.0000 C   0  0  0  0  0  0  0  0  0  0  0  0
   10.9326   -7.8021    0.0000 C   0  0  0  0  0  0  0  0  0  0  0  0
   10.0671   -6.3032    0.0000 C   0  0  0  0  0  0  0  0  0  0  0  0
   10.0671   -7.3024    0.0000 N   0  0  0  0  0  0  0  0  0  0  0  0
   12.7486   -5.9944    0.0000 C   0  0  0  0  0  0  0  0  0  0  0  0
   13.3360   -6.8029    0.0000 C   0  0  0  0  0  0  0  0  0  0  0  0
   12.7487   -7.6113    0.0000 C   0  0  0  0  0  0  0  0  0  0  0  0
    9.2017   -5.8035    0.0000 C   0  0  0  0  0  0  0  0  0  0  0  0
    8.3362   -6.3032    0.0000 C   0  0  0  0  0  0  0  0  0  0  0  0
    8.2318   -7.2970    0.0000 C   0  0  0  0  0  0  0  0  0  0  0  0
    7.4232   -5.8967    0.0000 C   0  0  0  0  0  0  0  0  0  0  0  0
    7.2544   -7.5049    0.0000 N   0  0  0  0  0  0  0  0  0  0  0  0
    6.7545   -6.6395    0.0000 C   0  0  0  0  0  0  0  0  0  0  0  0
    7.1395   -4.9385    0.0000 C   0  0  0  0  0  0  0  0  0  0  0  0
    6.1678   -4.7050    0.0000 C   0  0  0  0  0  0  0  0  0  0  0  0
    5.4797   -5.4299    0.0000 C   0  0  0  0  0  0  0  0  0  0  0  0
    5.7635   -6.3881    0.0000 C   0  0  0  0  0  0  0  0  0  0  0  0
   10.9326   -4.8041    0.0000 O   0  0  0  0  0  0  0  0  0  0  0  0
   10.9326   -8.8015    0.0000 O   0  0  0  0  0  0  0  0  0  0  0  0
   11.9026   -8.2964    0.0000 H   0  0  0  0  0  0  0  0  0  0  0  0
    8.4904   -8.2623    0.0000 C   0  0  0  0  0  0  0  0  0  0  0  0
    7.7838   -8.9690    0.0000 C   0  0  0  0  0  0  0  0  0  0  0  0
    8.0425   -9.9342    0.0000 C   0  0  0  0  0  0  0  0  0  0  0  0
    9.4558   -8.0037    0.0000 C   0  0  0  0  0  0  0  0  0  0  0  0
    9.1971   -8.9690    0.0000 C   0  0  0  0  0  0  0  0  0  0  0  0
    4.5080   -5.1966    0.0000 O   0  0  0  0  0  0  0  0  0  0  0  0
    5.0710   -7.1086    0.0000 C   0  0  0  0  0  0  0  0  0  0  0  0
    4.1007   -6.8691    0.0000 C   0  0  0  0  0  0  0  0  0  0  0  0
    3.4082   -7.5897    0.0000 C   0  0  0  0  0  0  0  0  0  0  0  0
    2.4380   -7.3502    0.0000 C   0  0  0  0  0  0  0  0  0  0  0  0
    3.6859   -8.5497    0.0000 C   0  0  0  0  0  0  0  0  0  0  0  0
  3  1  1  0     0  0
  4  2  1  0     0  0
  5  3  1  0     0  0
  6  4  1  0     0  0
  6  5  1  0     0  0
  7  1  1  0     0  0
  2  1  1  0     0  0
  8  7  1  0     0  0
  9  2  1  0     0  0
  9  8  1  0     0  0
  5 10  1  1     0  0
 12 11  2  0     0  0
 13 11  1  0     0  0
 14 12  1  0     0  0
 15 14  1  0     0  0
 10 11  1  0     0  0
 13 16  1  0     0  0
 17 16  2  0     0  0
 15 13  2  0     0  0
 18 17  1  0     0  0
 19 15  1  0     0  0
 19 18  2  0     0  0
  3 20  2  0     0  0
  4 21  2  0     0  0
  2 22  1  6     0  0
 12 23  1  0     0  0
 23 24  1  0     0  0
 24 25  2  0     0  0
 23 26  1  0     0  0
 23 27  1  0     0  0
 18 28  1  0     0  0
 19 29  1  0     0  0
 29 30  1  0     0  0
 30 31  2  0     0  0
 31 32  1  0     0  0
 31 33  1  0     0  0
M  END
> <ID>
CHEBI:145683

> <NAME>
notoamide S

$$$$

Ketcher 12171915062D 1   1.00000     0.00000     0

 33 37  0     1  0            999 V2000
   11.8019   -6.3052    0.0000 N   0  0  0  0  0  0  0  0  0  0  0  0
   11.8019   -7.3047    0.0000 C   0  0  0  0  0  0  0  0  0  0  0  0
   10.9361   -5.8053    0.0000 C   0  0  0  0  0  0  0  0  0  0  0  0
   10.9361   -7.8046    0.0000 C   0  0  0  0  0  0  0  0  0  0  0  0
   10.0703   -6.3052    0.0000 C   0  0  0  0  0  0  0  0  0  0  0  0
   10.0703   -7.3047    0.0000 N   0  0  0  0  0  0  0  0  0  0  0  0
   12.7526   -5.9963    0.0000 C   0  0  0  0  0  0  0  0  0  0  0  0
   13.3402   -6.8050    0.0000 C   0  0  0  0  0  0  0  0  0  0  0  0
   12.7527   -7.6137    0.0000 C   0  0  0  0  0  0  0  0  0  0  0  0
    9.2046   -5.8053    0.0000 C   0  0  0  0  0  0  0  0  0  0  0  0
    8.3388   -6.3052    0.0000 C   0  0  0  0  0  0  0  0  0  0  0  0
    8.2344   -7.2993    0.0000 C   0  0  0  0  0  0  0  0  0  0  0  0
    7.4255   -5.8985    0.0000 C   0  0  0  0  0  0  0  0  0  0  0  0
    7.2566   -7.5072    0.0000 N   0  0  0  0  0  0  0  0  0  0  0  0
    6.7567   -6.6415    0.0000 C   0  0  0  0  0  0  0  0  0  0  0  0
    7.1417   -4.9400    0.0000 C   0  0  0  0  0  0  0  0  0  0  0  0
    6.1697   -4.7065    0.0000 C   0  0  0  0  0  0  0  0  0  0  0  0
    5.4814   -5.4316    0.0000 C   0  0  0  0  0  0  0  0  0  0  0  0
    5.7653   -6.3901    0.0000 C   0  0  0  0  0  0  0  0  0  0  0  0
   10.9361   -4.8056    0.0000 O   0  0  0  0  0  0  0  0  0  0  0  0
   10.9361   -8.8043    0.0000 O   0  0  0  0  0  0  0  0  0  0  0  0
   11.9063   -8.2990    0.0000 H   0  0  0  0  0  0  0  0  0  0  0  0
    8.4931   -8.2649    0.0000 C   0  0  0  0  0  0  0  0  0  0  0  0
    7.7863   -8.9718    0.0000 C   0  0  0  0  0  0  0  0  0  0  0  0
    8.0450   -9.9374    0.0000 C   0  0  0  0  0  0  0  0  0  0  0  0
    9.4587   -8.0062    0.0000 C   0  0  0  0  0  0  0  0  0  0  0  0
    9.2000   -8.9718    0.0000 C   0  0  0  0  0  0  0  0  0  0  0  0
    4.5094   -5.1982    0.0000 O   0  0  0  0  0  0  0  0  0  0  0  0
    5.0726   -7.1108    0.0000 C   0  0  0  0  0  0  0  0  0  0  0  0
    4.1020   -6.8713    0.0000 C   0  0  0  0  0  0  0  0  0  0  0  0
    3.8242   -5.9110    0.0000 C   0  0  0  0  0  0  0  0  0  0  0  0
    3.0813   -5.2420    0.0000 C   0  0  0  0  0  0  0  0  0  0  0  0
    2.8586   -6.1697    0.0000 C   0  0  0  0  0  0  0  0  0  0  0  0
  3  1  1  0     0  0
  4  2  1  0     0  0
  5  3  1  0     0  0
  6  4  1  0     0  0
  6  5  1  0     0  0
  7  1  1  0     0  0
  2  1  1  0     0  0
  8  7  1  0     0  0
  9  2  1  0     0  0
  9  8  1  0     0  0
  5 10  1  1     0  0
 12 11  2  0     0  0
 13 11  1  0     0  0
 14 12  1  0     0  0
 15 14  1  0     0  0
 10 11  1  0     0  0
 13 16  1  0     0  0
 17 16  2  0     0  0
 15 13  2  0     0  0
 18 17  1  0     0  0
 19 15  1  0     0  0
 19 18  2  0     0  0
  3 20  2  0     0  0
  4 21  2  0     0  0
  2 22  1  6     0  0
 12 23  1  0     0  0
 23 24  1  0     0  0
 24 25  2  0     0  0
 23 26  1  0     0  0
 23 27  1  0     0  0
 18 28  1  0     0  0
 19 29  1  0     0  0
 29 30  2  0     0  0
 30 31  1  0     0  0
 31 28  1  0     0  0
 31 32  1  0     0  0
 31 33  1  0     0  0
M  END
> <ID>
CHEBI:145684

> <NAME>
notoamide E

$$$$

Ketcher 12161915122D 1   1.00000     0.00000     0

 34 38  0     1  0            999 V2000
   11.8949  -15.5563    0.0000 N   0  0  0  0  0  0  0  0  0  0  0  0
   11.3899  -16.4189    0.0000 C   0  0  0  0  0  0  0  0  0  0  0  0
   11.4002  -14.6875    0.0000 C   0  0  0  0  0  0  0  0  0  0  0  0
   10.3903  -16.4129    0.0000 C   0  0  0  0  0  0  0  0  0  0  0  0
   10.4005  -14.6815    0.0000 C   0  0  0  0  0  0  0  0  0  0  0  0
    9.8955  -15.5441    0.0000 N   0  0  0  0  0  0  0  0  0  0  0  0
   12.8715  -15.7700    0.0000 C   0  0  0  0  0  0  0  0  0  0  0  0
   12.9700  -16.7648    0.0000 C   0  0  0  0  0  0  0  0  0  0  0  0
   12.0545  -17.1660    0.0000 C   0  0  0  0  0  0  0  0  0  0  0  0
    9.9058  -13.8128    0.0000 C   0  0  0  0  0  0  0  0  0  0  0  0
    8.9068  -13.8056    0.0000 C   0  0  0  0  0  0  0  0  0  0  0  0
    8.5241  -14.7290    0.0000 C   0  0  0  0  0  0  0  0  0  0  0  0
    8.1466  -13.1561    0.0000 C   0  0  0  0  0  0  0  0  0  0  0  0
    7.5275  -14.6506    0.0000 N   0  0  0  0  0  0  0  0  0  0  0  0
    7.2941  -13.6785    0.0000 C   0  0  0  0  0  0  0  0  0  0  0  0
    8.1468  -12.1565    0.0000 C   0  0  0  0  0  0  0  0  0  0  0  0
    7.2811  -11.6564    0.0000 C   0  0  0  0  0  0  0  0  0  0  0  0
    6.4151  -12.1561    0.0000 C   0  0  0  0  0  0  0  0  0  0  0  0
    6.4151  -13.1557    0.0000 C   0  0  0  0  0  0  0  0  0  0  0  0
   11.9053  -13.8247    0.0000 O   0  0  0  0  0  0  0  0  0  0  0  0
    9.8852  -17.2758    0.0000 O   0  0  0  0  0  0  0  0  0  0  0  0
   10.9778  -17.3298    0.0000 H   0  0  0  0  0  0  0  0  0  0  0  0
    5.5494  -11.6562    0.0000 O   0  0  0  0  0  0  0  0  0  0  0  0
    5.5461  -13.6501    0.0000 C   0  0  0  0  0  0  0  0  0  0  0  0
    4.6835  -13.1445    0.0000 C   0  0  0  0  0  0  0  0  0  0  0  0
    4.6899  -12.1448    0.0000 C   0  0  0  0  0  0  0  0  0  0  0  0
    4.1677  -11.2923    0.0000 C   0  0  0  0  0  0  0  0  0  0  0  0
    3.6906  -12.1186    0.0000 C   0  0  0  0  0  0  0  0  0  0  0  0
    9.0464  -15.5815    0.0000 O   0  0  0  0  0  0  0  0  0  0  0  0
    9.4071  -12.9399    0.0000 C   0  0  0  0  0  0  0  0  0  0  0  0
    8.9070  -12.0753    0.0000 C   0  0  0  0  0  0  0  0  0  0  0  0
    9.4074  -11.2098    0.0000 C   0  0  0  0  0  0  0  0  0  0  0  0
   10.3774  -13.1806    0.0000 C   0  0  0  0  0  0  0  0  0  0  0  0
   10.1006  -12.2199    0.0000 C   0  0  0  0  0  0  0  0  0  0  0  0
  3  1  1  0     0  0
  4  2  1  0     0  0
  5  3  1  0     0  0
  6  4  1  0     0  0
  6  5  1  0     0  0
  7  1  1  0     0  0
  2  1  1  0     0  0
  8  7  1  0     0  0
  9  2  1  0     0  0
  9  8  1  0     0  0
  5 10  1  1     0  0
 12 11  1  0     0  0
 13 11  1  0     0  0
 14 12  1  0     0  0
 15 14  1  0     0  0
 10 11  1  0     0  0
 13 16  1  0     0  0
 17 16  2  0     0  0
 15 13  2  0     0  0
 18 17  1  0     0  0
 19 15  1  0     0  0
 19 18  2  0     0  0
  3 20  2  0     0  0
  4 21  2  0     0  0
  2 22  1  6     0  0
 18 23  1  0     0  0
 19 24  1  0     0  0
 24 25  2  0     0  0
 25 26  1  0     0  0
 26 23  1  0     0  0
 26 27  1  0     0  0
 26 28  1  0     0  0
 12 29  2  0     0  0
 11 30  1  6     0  0
 30 31  1  0     0  0
 31 32  2  0     0  0
 30 33  1  0     0  0
 30 34  1  0     0  0
M  END
> <ID>
CHEBI:145685

> <NAME>
notoamide C

$$$$

Ketcher 12161910552D 1   1.00000     0.00000     0

 35 40  0     1  0            999 V2000
   24.0410  -27.6810    0.0000 N   0  0  0  0  0  0  0  0  0  0  0  0
   23.5355  -28.5576    0.0000 C   0  0  0  0  0  0  0  0  0  0  0  0
   23.5344  -26.8046    0.0000 C   0  0  0  0  0  0  0  0  0  0  0  0
   22.5233  -28.5583    0.0000 C   0  0  0  0  0  0  0  0  0  0  0  0
   22.5226  -26.8056    0.0000 C   0  0  0  0  0  0  0  0  0  0  0  0
   21.9278  -27.6243    0.0000 N   0  0  0  0  0  0  0  0  0  0  0  0
   25.0311  -27.8909    0.0000 C   0  0  0  0  0  0  0  0  0  0  0  0
   25.1374  -28.8973    0.0000 C   0  0  0  0  0  0  0  0  0  0  0  0
   24.2132  -29.3096    0.0000 C   0  0  0  0  0  0  0  0  0  0  0  0
   19.9531  -25.9971    0.0000 C   0  0  0  0  0  0  0  0  0  0  0  0
   20.0389  -27.6328    0.0000 N   0  0  0  0  0  0  0  0  0  0  0  0
   19.4020  -26.8461    0.0000 C   0  0  0  0  0  0  0  0  0  0  0  0
   19.3797  -25.1407    0.0000 C   0  0  0  0  0  0  0  0  0  0  0  0
   18.3676  -25.1401    0.0000 C   0  0  0  0  0  0  0  0  0  0  0  0
   17.8611  -25.9556    0.0000 C   0  0  0  0  0  0  0  0  0  0  0  0
   18.3668  -26.8322    0.0000 C   0  0  0  0  0  0  0  0  0  0  0  0
   23.9791  -26.0335    0.0000 O   0  0  0  0  0  0  0  0  0  0  0  0
   22.0787  -29.3294    0.0000 O   0  0  0  0  0  0  0  0  0  0  0  0
   16.8490  -25.9552    0.0000 O   0  0  0  0  0  0  0  0  0  0  0  0
   17.8547  -27.7053    0.0000 C   0  0  0  0  0  0  0  0  0  0  0  0
   16.8427  -27.6985    0.0000 C   0  0  0  0  0  0  0  0  0  0  0  0
   16.3427  -26.8184    0.0000 C   0  0  0  0  0  0  0  0  0  0  0  0
   15.4533  -26.3352    0.0000 C   0  0  0  0  0  0  0  0  0  0  0  0
   15.4530  -27.3011    0.0000 C   0  0  0  0  0  0  0  0  0  0  0  0
   21.9278  -25.9867    0.0000 C   0  0  0  0  0  0  0  0  0  0  0  0
   20.9652  -26.2995    0.0000 C   0  0  0  0  0  0  0  0  0  0  0  0
   20.9652  -27.3116    0.0000 C   0  0  0  0  0  0  0  0  0  0  0  0
   23.1174  -25.9868    0.0000 H   0  0  0  0  0  0  0  0  0  0  0  0
   20.9732  -25.2888    0.0000 O   0  0  0  0  0  0  0  0  0  0  0  0
   20.9114  -28.3218    0.0000 C   0  0  0  0  0  0  0  0  0  0  0  0
   23.0300  -29.4344    0.0000 H   0  0  0  0  0  0  0  0  0  0  0  0
   20.2907  -29.0422    0.0000 C   0  0  0  0  0  0  0  0  0  0  0  0
   19.9816  -28.4060    0.0000 C   0  0  0  0  0  0  0  0  0  0  0  0
   21.2709  -29.0673    0.0000 C   0  0  0  0  0  0  0  0  0  0  0  0
   20.6512  -29.8675    0.0000 C   0  0  0  0  0  0  0  0  0  0  0  0
  3  1  1  0     0  0
  2  4  1  0     0  0
  5  3  1  0     0  0
  6  4  1  0     0  0
  6  5  1  0     0  0
  7  1  1  0     0  0
  2  1  1  0     0  0
  8  7  1  0     0  0
  2  9  1  0     0  0
  9  8  1  0     0  0
 12 11  1  0     0  0
 10 13  2  0     0  0
 14 13  1  0     0  0
 12 10  1  0     0  0
 15 14  2  0     0  0
 16 12  2  0     0  0
 16 15  1  0     0  0
  3 17  2  0     0  0
  4 18  2  0     0  0
 15 19  1  0     0  0
 16 20  1  0     0  0
 20 21  2  0     0  0
 21 22  1  0     0  0
 22 19  1  0     0  0
 22 23  1  0     0  0
 22 24  1  0     0  0
 25 26  1  0     0  0
 26 27  1  0     0  0
 25  5  1  0     0  0
 27  6  1  0     0  0
 10 26  1  0     0  0
 11 27  1  0     0  0
  5 28  1  6     0  0
 26 29  1  1     0  0
 27 30  1  1     0  0
  2 31  1  6     0  0
 30 32  1  0     0  0
 30 33  1  0     0  0
 30 34  1  0     0  0
 34 35  2  0     0  0
M  END
> <ID>
CHEBI:145686

> <NAME>
notoamide D

$$$$

Ketcher 05172111512D 1   1.00000     0.00000     0

 14 15  0     1  0            999 V2000
   13.8941  -15.4648    0.0000 O   0  0  0  0  0  0  0  0  0  0  0  0
   12.9159  -15.2568    0.0000 C   0  0  0  0  0  0  0  0  0  0  0  0
   12.2468  -16.0000    0.0000 C   0  0  0  0  0  0  0  0  0  0  0  0
   12.6069  -14.3058    0.0000 C   0  0  0  0  0  0  0  0  0  0  0  0
   13.1947  -13.4968    0.0000 O   0  0  0  0  0  0  0  0  0  0  0  0
   12.6069  -12.6877    0.0000 C   0  0  0  0  0  0  0  0  0  0  0  0
   12.9159  -11.7367    0.0000 O   0  0  0  0  0  0  0  0  0  0  0  0
   11.6559  -12.9968    0.0000 C   0  0  0  0  0  0  0  0  0  0  0  0
   11.6559  -13.9968    0.0000 C   0  0  0  0  0  0  0  0  0  0  0  0
   10.8468  -12.4090    0.0000 C   0  0  0  0  0  0  0  0  0  0  0  0
   10.4401  -11.4955    0.0000 O   0  0  0  0  0  0  0  0  0  0  0  0
    9.8523  -12.3044    0.0000 C   0  0  0  0  0  0  0  0  0  0  0  0
    8.9387  -12.7112    0.0000 C   0  0  0  0  0  0  0  0  0  0  0  0
   11.8998  -15.0129    0.0000 H   0  0  0  0  0  0  0  0  0  0  0  0
  2  1  1  1     0  0
  2  3  1  0     0  0
  2  4  1  0     0  0
  4  5  1  0     0  0
  5  6  1  0     0  0
  6  7  2  0     0  0
  6  8  1  0     0  0
  8  9  2  0     0  0
  4  9  1  0     0  0
 10  8  1  0     0  0
 10 11  1  1     0  0
 11 12  1  0     0  0
 12 10  1  0     0  0
 12 13  1  6     0  0
  4 14  1  6     0  0
M  END
> <ID>
CHEBI:156386

> <NAME>
asperlactone

$$$$

Ketcher 12052214522D 1   1.00000     0.00000     0

 23 26  0     0  0            999 V2000
   38.8187   -4.5479    0.0000 C   0  0  0  0  0  0  0  0  0  0  0  0
   39.6908   -4.0444    0.0000 C   0  0  0  0  0  0  0  0  0  0  0  0
   38.8187   -5.5548    0.0000 C   0  0  0  0  0  0  0  0  0  0  0  0
   37.9467   -4.0444    0.0000 C   0  0  0  0  0  0  0  0  0  0  0  0
   40.5629   -4.5479    0.0000 C   0  0  0  0  0  0  0  0  0  0  0  0
   39.6908   -3.0374    0.0000 C   0  0  0  0  0  0  0  0  0  0  0  0
   39.6908   -6.0583    0.0000 C   0  0  0  0  0  0  0  0  0  0  0  0
   37.9467   -6.0583    0.0000 C   0  0  0  0  0  0  0  0  0  0  0  0
   37.9467   -3.0374    0.0000 C   0  0  0  0  0  0  0  0  0  0  0  0
   36.9890   -4.3555    0.0000 O   0  0  0  0  0  0  0  0  0  0  0  0
   40.5629   -5.5548    0.0000 C   0  0  0  0  0  0  0  0  0  0  0  0
   41.5575   -4.3852    0.0000 N   0  0  0  0  0  0  0  0  0  0  0  0
   38.8187   -2.5339    0.0000 C   0  0  0  0  0  0  0  0  0  0  0  0
   40.5654   -2.5386    0.0000 C   0  0  0  0  0  0  0  0  0  0  0  0
   39.6908   -7.0653    0.0000 C   0  0  0  0  0  0  0  0  0  0  0  0
   37.9467   -7.0653    0.0000 C   0  0  0  0  0  0  0  0  0  0  0  0
   36.9890   -2.7261    0.0000 O   0  0  0  0  0  0  0  0  0  0  0  0
   36.3971   -3.5409    0.0000 C   0  0  0  0  0  0  0  0  0  0  0  0
   41.8504   -3.6140    0.0000 O   0  0  0  0  0  0  0  0  0  0  0  0
   42.1940   -5.1655    0.0000 O   0  0  0  0  0  0  0  0  0  0  0  0
   40.5708   -1.5316    0.0000 O   0  0  0  0  0  0  0  0  0  0  0  0
   38.8187   -7.5687    0.0000 C   0  0  0  0  0  0  0  0  0  0  0  0
   41.4349   -3.0467    0.0000 O   0  0  0  0  0  0  0  0  0  0  0  0
  1  2  2  0     0  0
  1  3  1  0     0  0
  1  4  1  0     0  0
  2  5  1  0     0  0
  2  6  1  0     0  0
  3  7  2  0     0  0
  3  8  1  0     0  0
  4  9  2  0     0  0
  4 10  1  0     0  0
  5 11  2  0     0  0
  5 12  1  0     0  0
  6 13  2  0     0  0
  6 14  1  0     0  0
  7 15  1  0     0  0
  8 16  2  0     0  0
  9 17  1  0     0  0
 10 18  1  0     0  0
 12 19  2  0     0  0
 12 20  1  0     0  0
 14 21  2  0     0  0
 15 22  2  0     0  0
  7 11  1  0     0  0
  9 13  1  0     0  0
 16 22  1  0     0  0
 17 18  1  0     0  0
 14 23  1  0     0  0
M  CHG  2  12   1  20  -1
M  END
> <ID>
CHEBI:194149

> <NAME>
aristolochic acid B

$$$$

Ketcher 12052216272D 1   1.00000     0.00000     0

 24 27  0     0  0            999 V2000
   12.4762  -17.3310    0.0000 C   0  0  0  0  0  0  0  0  0  0  0  0
   13.3481  -16.8276    0.0000 C   0  0  0  0  0  0  0  0  0  0  0  0
   12.4762  -18.3376    0.0000 C   0  0  0  0  0  0  0  0  0  0  0  0
   11.6043  -16.8276    0.0000 C   0  0  0  0  0  0  0  0  0  0  0  0
   14.2199  -17.3310    0.0000 C   0  0  0  0  0  0  0  0  0  0  0  0
   13.3481  -15.8209    0.0000 C   0  0  0  0  0  0  0  0  0  0  0  0
   13.3481  -18.8410    0.0000 C   0  0  0  0  0  0  0  0  0  0  0  0
   11.6043  -18.8410    0.0000 C   0  0  0  0  0  0  0  0  0  0  0  0
   11.6043  -15.8209    0.0000 C   0  0  0  0  0  0  0  0  0  0  0  0
   10.6469  -17.1386    0.0000 O   0  0  0  0  0  0  0  0  0  0  0  0
   14.2199  -18.3376    0.0000 C   0  0  0  0  0  0  0  0  0  0  0  0
   15.2143  -17.1684    0.0000 N   0  0  0  0  0  0  0  0  0  0  0  0
   12.4762  -15.3175    0.0000 C   0  0  0  0  0  0  0  0  0  0  0  0
   14.2225  -15.3222    0.0000 C   0  0  0  0  0  0  0  0  0  0  0  0
   13.3481  -19.8476    0.0000 C   0  0  0  0  0  0  0  0  0  0  0  0
   11.6043  -19.8476    0.0000 C   0  0  0  0  0  0  0  0  0  0  0  0
   10.6469  -15.5097    0.0000 O   0  0  0  0  0  0  0  0  0  0  0  0
   10.0552  -16.3243    0.0000 C   0  0  0  0  0  0  0  0  0  0  0  0
   15.5070  -16.3974    0.0000 O   0  0  0  0  0  0  0  0  0  0  0  0
   15.8505  -17.9485    0.0000 O   0  0  0  0  0  0  0  0  0  0  0  0
   14.2278  -14.3155    0.0000 O   0  0  0  0  0  0  0  0  0  0  0  0
   12.4762  -20.3509    0.0000 C   0  0  0  0  0  0  0  0  0  0  0  0
   15.0917  -15.8302    0.0000 O   0  0  0  0  0  0  0  0  0  0  0  0
   10.7325  -20.3510    0.0000 O   0  0  0  0  0  0  0  0  0  0  0  0
  1  2  2  0     0  0
  1  3  1  0     0  0
  1  4  1  0     0  0
  2  5  1  0     0  0
  2  6  1  0     0  0
  3  7  2  0     0  0
  3  8  1  0     0  0
  4  9  2  0     0  0
  4 10  1  0     0  0
  5 11  2  0     0  0
  5 12  1  0     0  0
  6 13  2  0     0  0
  6 14  1  0     0  0
  7 15  1  0     0  0
  8 16  2  0     0  0
  9 17  1  0     0  0
 10 18  1  0     0  0
 12 19  2  0     0  0
 12 20  1  0     0  0
 14 21  2  0     0  0
 15 22  2  0     0  0
  7 11  1  0     0  0
  9 13  1  0     0  0
 16 22  1  0     0  0
 17 18  1  0     0  0
 14 23  1  0     0  0
 16 24  1  0     0  0
M  CHG  2  12   1  20  -1
M  END
> <ID>
CHEBI:194151

> <NAME>
aristolochic acid C

$$$$

Ketcher 12052216212D 1   1.00000     0.00000     0

 26 29  0     0  0            999 V2000
   37.1127  -16.1572    0.0000 C   0  0  0  0  0  0  0  0  0  0  0  0
   37.9842  -15.6541    0.0000 C   0  0  0  0  0  0  0  0  0  0  0  0
   37.1127  -17.1634    0.0000 C   0  0  0  0  0  0  0  0  0  0  0  0
   36.2413  -15.6541    0.0000 C   0  0  0  0  0  0  0  0  0  0  0  0
   38.8557  -16.1572    0.0000 C   0  0  0  0  0  0  0  0  0  0  0  0
   37.9842  -14.6478    0.0000 C   0  0  0  0  0  0  0  0  0  0  0  0
   37.9842  -17.6665    0.0000 C   0  0  0  0  0  0  0  0  0  0  0  0
   36.2413  -17.6665    0.0000 C   0  0  0  0  0  0  0  0  0  0  0  0
   36.2413  -14.6478    0.0000 C   0  0  0  0  0  0  0  0  0  0  0  0
   35.2844  -15.9649    0.0000 O   0  0  0  0  0  0  0  0  0  0  0  0
   38.8557  -17.1634    0.0000 C   0  0  0  0  0  0  0  0  0  0  0  0
   39.8496  -15.9947    0.0000 N   0  0  0  0  0  0  0  0  0  0  0  0
   37.1127  -14.1447    0.0000 C   0  0  0  0  0  0  0  0  0  0  0  0
   38.8582  -14.1494    0.0000 C   0  0  0  0  0  0  0  0  0  0  0  0
   37.9842  -18.6728    0.0000 C   0  0  0  0  0  0  0  0  0  0  0  0
   36.2413  -18.6728    0.0000 C   0  0  0  0  0  0  0  0  0  0  0  0
   35.2844  -14.3368    0.0000 O   0  0  0  0  0  0  0  0  0  0  0  0
   34.6929  -15.1509    0.0000 C   0  0  0  0  0  0  0  0  0  0  0  0
   40.1422  -15.2240    0.0000 O   0  0  0  0  0  0  0  0  0  0  0  0
   40.4855  -16.7744    0.0000 O   0  0  0  0  0  0  0  0  0  0  0  0
   38.8636  -13.1431    0.0000 O   0  0  0  0  0  0  0  0  0  0  0  0
   37.1127  -19.1758    0.0000 C   0  0  0  0  0  0  0  0  0  0  0  0
   39.7270  -14.6571    0.0000 O   0  0  0  0  0  0  0  0  0  0  0  0
   35.3698  -19.1759    0.0000 O   0  0  0  0  0  0  0  0  0  0  0  0
   38.8557  -19.1759    0.0000 O   0  0  0  0  0  0  0  0  0  0  0  0
   39.7271  -18.6728    0.0000 C   0  0  0  0  0  0  0  0  0  0  0  0
  1  2  2  0     0  0
  1  3  1  0     0  0
  1  4  1  0     0  0
  2  5  1  0     0  0
  2  6  1  0     0  0
  3  7  2  0     0  0
  3  8  1  0     0  0
  4  9  2  0     0  0
  4 10  1  0     0  0
  5 11  2  0     0  0
  5 12  1  0     0  0
  6 13  2  0     0  0
  6 14  1  0     0  0
  7 15  1  0     0  0
  8 16  2  0     0  0
  9 17  1  0     0  0
 10 18  1  0     0  0
 12 19  2  0     0  0
 12 20  1  0     0  0
 14 21  2  0     0  0
 15 22  2  0     0  0
  7 11  1  0     0  0
  9 13  1  0     0  0
 16 22  1  0     0  0
 17 18  1  0     0  0
 14 23  1  0     0  0
 16 24  1  0     0  0
 15 25  1  0     0  0
 25 26  1  0     0  0
M  CHG  2  12   1  20  -1
M  END
> <ID>
CHEBI:194152

> <NAME>
aristolochic acid D

$$$$

Marvin  06171013532D          

 38 41  0  0  1  0            999 V2000
    4.9929   -8.6872    0.0000 C   0  0  2  0  0  0  0  0  0  0  0  0
    5.7044   -9.0977    0.0000 C   0  0  0  0  0  0  0  0  0  0  0  0
    6.4158   -8.6872    0.0000 C   0  0  2  0  0  0  0  0  0  0  0  0
    6.4158   -7.8622    0.0000 C   0  0  0  0  0  0  0  0  0  0  0  0
    4.9906   -7.8583    0.0000 C   0  0  2  0  0  0  0  0  0  0  0  0
    5.7044   -7.4476    0.0000 C   0  0  1  0  0  0  0  0  0  0  0  0
    5.4653   -6.6850    0.0000 C   0  0  0  0  0  0  0  0  0  0  0  0
    4.7111   -6.5543    0.0000 N   0  0  0  0  0  0  0  0  0  0  0  0
    4.3784   -7.3078    0.0000 C   0  0  1  0  0  0  0  0  0  0  0  0
    5.2473   -5.9231    0.0000 O   0  0  0  0  0  0  0  0  0  0  0  0
    3.5715   -7.4805    0.0000 C   0  0  0  0  0  0  0  0  0  0  0  0
    3.0165   -6.8644    0.0000 C   0  0  0  0  0  0  0  0  0  0  0  0
    3.2747   -6.0829    0.0000 C   0  0  0  0  0  0  0  0  0  0  0  0
    2.7246   -5.4713    0.0000 C   0  0  0  0  0  0  0  0  0  0  0  0
    1.9168   -5.6438    0.0000 C   0  0  0  0  0  0  0  0  0  0  0  0
    1.6620   -6.4332    0.0000 C   0  0  0  0  0  0  0  0  0  0  0  0
    2.2139   -7.0413    0.0000 C   0  0  0  0  0  0  0  0  0  0  0  0
    4.2726   -8.2685    0.0000 H   0  0  0  0  0  0  0  0  0  0  0  0
    4.2801   -9.1039    0.0000 C   0  0  0  0  0  0  0  0  0  0  0  0
    5.7044   -9.9227    0.0000 C   0  0  0  0  0  0  0  0  0  0  0  0
    7.1292   -9.1029    0.0000 O   0  0  0  0  0  0  0  0  0  0  0  0
    6.4239   -6.2130    0.0000 C   0  0  0  0  0  0  0  0  0  0  0  0
    5.8185   -6.6005    0.0000 C   0  0  1  0  0  0  0  0  0  0  0  0
    7.1333   -7.4534    0.0000 C   0  0  0  0  0  0  0  0  0  0  0  0
    7.1367   -6.6284    0.0000 C   0  0  0  0  0  0  0  0  0  0  0  0
    7.7838   -6.1167    0.0000 C   0  0  1  0  0  0  0  0  0  0  0  0
    7.7762   -7.9705    0.0000 C   0  0  0  0  0  0  0  0  0  0  0  0
    8.5813   -7.7902    0.0000 C   0  0  0  0  0  0  0  0  0  0  0  0
    8.9422   -7.0483    0.0000 C   0  0  1  0  0  0  0  0  0  0  0  0
    8.5874   -6.3036    0.0000 C   0  0  0  0  0  0  0  0  0  0  0  0
    5.8406   -5.4213    0.0000 O   0  0  0  0  0  0  0  0  0  0  0  0
    9.7672   -7.0483    0.0000 C   0  0  0  0  0  0  0  0  0  0  0  0
    9.1044   -5.6607    0.0000 O   0  0  0  0  0  0  0  0  0  0  0  0
    7.2004   -5.5334    0.0000 C   0  0  0  0  0  0  0  0  0  0  0  0
    8.1963   -5.4023    0.0000 O   0  0  0  0  0  0  0  0  0  0  0  0
    5.1261   -5.0088    0.0000 C   0  0  0  0  0  0  0  0  0  0  0  0
    5.1261   -4.1838    0.0000 O   0  0  0  0  0  0  0  0  0  0  0  0
    4.4117   -5.4213    0.0000 C   0  0  0  0  0  0  0  0  0  0  0  0
  9  8  1  0  0  0  0
  5  9  1  0  0  0  0
  6  5  1  0  0  0  0
  7 10  2  0  0  0  0
  9 11  1  6  0  0  0
 11 12  1  0  0  0  0
  5  1  1  0  0  0  0
 12 13  2  0  0  0  0
 13 14  1  0  0  0  0
  1  2  1  0  0  0  0
 14 15  2  0  0  0  0
 15 16  1  0  0  0  0
  3  2  1  0  0  0  0
 16 17  2  0  0  0  0
 17 12  1  0  0  0  0
  5 18  1  6  0  0  0
  4  3  1  0  0  0  0
  1 19  1  1  0  0  0
  2 20  2  0  0  0  0
  3 21  1  6  0  0  0
  6  7  1  1  0  0  0
  7  8  1  0  0  0  0
 23  6  1  0  0  0  0
  6  4  1  0  0  0  0
  4 24  1  0  0  0  0
 22 23  1  0  0  0  0
 22 25  2  0  0  0  0
 24 27  2  0  0  0  0
 26 25  1  0  0  0  0
 27 28  1  0  0  0  0
 28 29  1  0  0  0  0
 29 30  1  0  0  0  0
 30 26  1  0  0  0  0
 23 31  1  6  0  0  0
 29 32  1  1  0  0  0
 30 33  2  0  0  0  0
 26 34  1  0  0  0  0
 26 35  1  1  0  0  0
 31 36  1  0  0  0  0
 36 37  2  0  0  0  0
 36 38  1  0  0  0  0
M  END
> <ID>
CHEBI:529996

> <NAME>
cytochalasin D

$$$$

Ketcher 11041614402D 1   1.00000     0.00000     0

 75 76  0     1  0            999 V2000
    1.3077   -7.1394    0.0000 C   0  0  0  0  0  0  0  0  0  0  0  0
    2.1695   -6.6418    0.0000 C   0  0  0  0  0  0  0  0  0  0  0  0
    3.0312   -7.1394    0.0000 C   0  0  0  0  0  0  0  0  0  0  0  0
    4.7547   -7.1394    0.0000 C   0  0  0  0  0  0  0  0  0  0  0  0
    6.4783   -7.1393    0.0000 C   0  0  0  0  0  0  0  0  0  0  0  0
    7.3399   -6.6418    0.0000 C   0  0  0  0  0  0  0  0  0  0  0  0
    2.1694   -5.6468    0.0000 O   0  0  0  0  0  0  0  0  0  0  0  0
    7.3399   -5.6468    0.0000 C   0  0  0  0  0  0  0  0  0  0  0  0
    8.2017   -5.1492    0.0000 C   0  0  0  0  0  0  0  0  0  0  0  0
    8.2017   -8.1343    0.0000 C   0  0  0  0  0  0  0  0  0  0  0  0
    9.0634   -8.6318    0.0000 C   0  0  0  0  0  0  0  0  0  0  0  0
    9.0634   -9.6269    0.0000 C   0  0  0  0  0  0  0  0  0  0  0  0
    8.2018  -11.1195    0.0000 C   0  0  0  0  0  0  0  0  0  0  0  0
   10.7870   -8.6317    0.0000 C   0  0  0  0  0  0  0  0  0  0  0  0
   11.6486   -8.1342    0.0000 C   0  0  0  0  0  0  0  0  0  0  0  0
   10.7870   -9.6269    0.0000 O   0  0  0  0  0  0  0  0  0  0  0  0
   12.5104   -8.6317    0.0000 C   0  0  0  0  0  0  0  0  0  0  0  0
   12.5104   -9.6269    0.0000 C   0  0  0  0  0  0  0  0  0  0  0  0
   13.3720  -10.1244    0.0000 O   0  0  0  0  0  0  0  0  0  0  0  0
   11.6487  -10.1244    0.0000 O   0  0  0  0  0  0  0  0  0  0  0  0
    7.3399   -7.6367    0.0000 H   0  0  0  0  0  0  0  0  0  0  0  0
   14.2338   -8.6317    0.0000 C   0  0  0  0  0  0  0  0  0  0  0  0
   14.2338   -9.6269    0.0000 O   0  0  0  0  0  0  0  0  0  0  0  0
    8.2017   -4.1541    0.0000 N   0  0  0  0  0  0  0  0  0  0  0  0
    9.0633   -3.6566    0.0000 C   0  0  0  0  0  0  0  0  0  0  0  0
    9.0633   -2.6615    0.0000 C   0  0  0  0  0  0  0  0  0  0  0  0
   10.7867   -3.6566    0.0000 C   0  0  0  0  0  0  0  0  0  0  0  0
   11.6486   -4.1540    0.0000 C   0  0  0  0  0  0  0  0  0  0  0  0
   12.5104   -3.6565    0.0000 N   0  0  0  0  0  0  0  0  0  0  0  0
   13.3720   -4.1540    0.0000 C   0  0  0  0  0  0  0  0  0  0  0  0
   12.5102   -2.6615    0.0000 C   0  0  0  0  0  0  0  0  0  0  0  0
   14.2337   -2.6614    0.0000 O   0  0  0  0  0  0  0  0  0  0  0  0
    9.9252   -2.1639    0.0000 O   0  0  0  0  0  0  0  0  0  0  0  0
    8.2015   -2.1639    0.0000 O   0  0  0  0  0  0  0  0  0  0  0  0
    9.9252   -4.1541    0.0000 C   0  0  0  0  0  0  0  0  0  0  0  0
    8.2017   -7.1393    0.0000 N   0  0  0  0  0  0  0  0  0  0  0  0
    9.0634   -5.6466    0.0000 O   0  0  0  0  0  0  0  0  0  0  0  0
    9.9252   -8.1343    0.0000 N   0  0  0  0  0  0  0  0  0  0  0  0
   11.6486   -5.1491    0.0000 O   0  0  0  0  0  0  0  0  0  0  0  0
   13.3720   -5.1491    0.0000 C   0  0  0  0  0  0  0  0  0  0  0  0
   11.6486   -7.1393    0.0000 C   0  0  0  0  0  0  0  0  0  0  0  0
   13.3720   -8.1342    0.0000 N   0  0  0  0  0  0  0  0  0  0  0  0
   15.0957   -8.1342    0.0000 C   0  0  0  0  0  0  0  0  0  0  0  0
    5.6165   -6.6418    0.0000 C   0  0  0  0  0  0  0  0  0  0  0  0
    6.4782   -5.1492    0.0000 C   0  0  0  0  0  0  0  0  0  0  0  0
    7.3399   -8.6318    0.0000 O   0  0  0  0  0  0  0  0  0  0  0  0
    8.2018  -10.1244    0.0000 C   0  0  0  0  0  0  0  0  0  0  0  0
    3.0313   -8.1344    0.0000 C   0  0  0  0  0  0  0  0  0  0  0  0
    4.7547   -8.1343    0.0000 C   0  0  0  0  0  0  0  0  0  0  0  0
    3.8930   -6.6418    0.0000 C   0  0  0  0  0  0  0  0  0  0  0  0
    3.0312   -5.1492    0.0000 C   0  0  0  0  0  0  0  0  0  0  0  0
   15.0955   -7.1391    0.0000 N   0  0  0  0  0  0  0  0  0  0  0  0
   15.0971   -5.5103    0.0000 C   0  0  0  0  0  0  0  0  0  0  0  0
   14.2045   -5.8510    0.0000 C   0  0  0  0  0  0  0  0  0  0  0  0
   15.6886   -6.3249    0.0000 C   0  0  0  0  0  0  0  0  0  0  0  0
   16.6734   -6.3249    0.0000 O   0  0  0  0  0  0  0  0  0  0  0  0
   14.2337   -3.6565    0.0000 C   0  0  0  0  0  0  0  0  0  0  0  0
   15.0955   -4.1540    0.0000 N   0  0  0  0  0  0  0  0  0  0  0  0
   15.9572   -8.6317    0.0000 C   0  0  0  0  0  0  0  0  0  0  0  0
    6.4782  -10.1245    0.0000 N   0  0  0  0  0  0  0  0  0  0  0  0
    6.4782  -11.1195    0.0000 C   0  0  0  0  0  0  0  0  0  0  0  0
    7.3399  -11.6170    0.0000 N   0  0  0  0  0  0  0  0  0  0  0  0
    5.6165  -11.6170    0.0000 N   0  0  0  0  0  0  0  0  0  0  0  0
    1.3077   -8.1390    0.0000 C   0  0  0  0  0  0  0  0  0  0  0  0
    2.1734   -8.6388    0.0000 C   0  0  0  0  0  0  0  0  0  0  0  0
    2.1734   -9.6385    0.0000 C   0  0  0  0  0  0  0  0  0  0  0  0
    1.3077  -10.1383    0.0000 C   0  0  0  0  0  0  0  0  0  0  0  0
    0.4420   -9.6385    0.0000 C   0  0  0  0  0  0  0  0  0  0  0  0
    0.4420   -8.6388    0.0000 C   0  0  0  0  0  0  0  0  0  0  0  0
   15.9572   -9.6314    0.0000 C   0  0  0  0  0  0  0  0  0  0  0  0
   16.8229  -10.1312    0.0000 C   0  0  0  0  0  0  0  0  0  0  0  0
   16.8229  -11.1263    0.0000 N   0  0  0  0  0  0  0  0  0  0  0  0
   17.6846  -12.6187    0.0000 N   0  0  0  0  0  0  0  0  0  0  0  0
   17.6846  -11.6238    0.0000 C   0  0  0  0  0  0  0  0  0  0  0  0
   18.5463  -11.1263    0.0000 N   0  0  0  0  0  0  0  0  0  0  0  0
  1  2  1  0     0  0
  2  7  1  6     0  0
  2  3  1  0     0  0
  3 48  1  6     0  0
  3 50  1  0     0  0
  4 49  1  0     0  0
 50  4  2  0     0  0
  4 44  1  0     0  0
  5  6  1  0     0  0
 44  5  2  0     0  0
  6 36  1  0     0  0
  6 21  1  6     0  0
  6  8  1  0     0  0
  7 51  1  0     0  0
  8  9  1  0     0  0
  8 45  1  6     0  0
  9 37  2  0     0  0
  9 24  1  0     0  0
 36 10  1  0     0  0
 10 11  1  0     0  0
 10 46  2  0     0  0
 11 12  1  1     0  0
 11 38  1  0     0  0
 12 47  1  0     0  0
 47 13  1  0     0  0
 13 62  1  0     0  0
 38 14  1  0     0  0
 14 15  1  0     0  0
 14 16  2  0     0  0
 15 17  1  0     0  0
 15 41  1  1     0  0
 17 18  1  1     0  0
 17 42  1  0     0  0
 18 19  1  0     0  0
 18 20  2  0     0  0
 42 22  1  0     0  0
 22 43  1  0     0  0
 22 23  2  0     0  0
 24 25  1  0     0  0
 25 26  1  1     0  0
 25 35  1  0     0  0
 26 33  1  0     0  0
 26 34  2  0     0  0
 35 27  1  0     0  0
 27 28  1  0     0  0
 28 29  1  0     0  0
 28 39  2  0     0  0
 29 30  1  0     0  0
 29 31  1  0     0  0
 30 57  1  0     0  0
 30 40  2  0     0  0
 57 32  2  0     0  0
 43 59  1  1     0  0
 43 52  1  0     0  0
 52 55  1  0     0  0
 53 54  1  1     0  0
 55 53  1  0     0  0
 58 53  1  0     0  0
 55 56  2  0     0  0
 57 58  1  0     0  0
 60 61  2  0     0  0
 61 62  1  0     0  0
 61 63  1  0     0  0
  1 64  1  0     0  0
 64 65  1  0     0  0
 65 66  2  0     0  0
 66 67  1  0     0  0
 67 68  2  0     0  0
 68 69  1  0     0  0
 69 64  2  0     0  0
 59 70  1  0     0  0
 70 71  1  0     0  0
 71 72  1  0     0  0
 73 74  2  0     0  0
 74 75  1  0     0  0
 74 72  1  0     0  0
M  END
> <ID>
CHEBI:133296

> <NAME>
microcystin RR

$$$$

Ketcher 08182018082D 1   1.00000     0.00000     0

  9  8  0     1  0            999 V2000
   -3.4641    0.0000    0.0000 C   0  0  0  0  0  0  0  0  0  0  0  0
   -2.5981    0.5000    0.0000 O   0  0  0  0  0  0  0  0  0  0  0  0
   -1.7321    0.0000    0.0000 C   0  0  0  0  0  0  0  0  0  0  0  0
   -0.8660    0.5000    0.0000 C   0  0  0  0  0  0  0  0  0  0  0  0
    0.0000    0.0000    0.0000 C   0  0  0  0  0  0  0  0  0  0  0  0
    0.0000   -1.0000    0.0000 N   0  0  0  0  0  0  0  0  0  0  0  0
    0.8660    0.5000    0.0000 C   0  0  0  0  0  0  0  0  0  0  0  0
    0.8660    1.5000    0.0000 O   0  0  0  0  0  0  0  0  0  0  0  0
    1.7321    0.0000    0.0000 O   0  0  0  0  0  0  0  0  0  0  0  0
  1  2  1  0     0  0
  2  3  1  0     0  0
  3  4  2  0     0  0
  4  5  1  0     0  0
  5  6  1  1     0  0
  5  7  1  0     0  0
  7  8  2  0     0  0
  7  9  1  0     0  0
M  END
> <ID>
CHEBI:156361

> <NAME>
L-2-amino-4-methoxy-trans-but-3-enoic acid

$$$$

Marvin  02280713572D          

 57 60  0  0  0  0            999 V2000
    0.0000   -0.8250    0.0000 O   0  0  0  0  0  0  0  0  0  0  0  0
    0.7145   -0.4125    0.0000 O   0  0  0  0  0  0  0  0  0  0  0  0
    0.7145    0.4125    0.0000 O   0  0  0  0  0  0  0  0  0  0  0  0
    0.0000    0.8250    0.0000 O   0  0  0  0  0  0  0  0  0  0  0  0
   -0.7145    0.4125    0.0000 O   0  0  0  0  0  0  0  0  0  0  0  0
   -0.7145   -0.4125    0.0000 O   0  0  0  0  0  0  0  0  0  0  0  0
    0.0000    1.6500    0.0000 C   0  0  0  0  0  0  0  0  0  0  0  0
   -0.7145    2.0625    0.0000 O   0  0  0  0  0  0  0  0  0  0  0  0
   -1.4290    1.6500    0.0000 C   0  0  1  0  0  0  0  0  0  0  0  0
   -1.4290    0.8250    0.0000 C   0  0  0  0  0  0  0  0  0  0  0  0
   -2.1434    0.4125    0.0000 N   0  0  0  0  0  0  0  0  0  0  0  0
   -1.4290   -0.8250    0.0000 C   0  0  0  0  0  0  0  0  0  0  0  0
   -1.4290   -1.6500    0.0000 O   0  0  0  0  0  0  0  0  0  0  0  0
   -0.7145   -2.0625    0.0000 C   0  0  1  0  0  0  0  0  0  0  0  0
    0.0000   -1.6500    0.0000 C   0  0  0  0  0  0  0  0  0  0  0  0
    0.7144   -2.0625    0.0000 N   0  0  0  0  0  0  0  0  0  0  0  0
    1.4289   -1.6500    0.0000 C   0  0  2  0  0  0  0  0  0  0  0  0
    1.4289   -0.8250    0.0000 C   0  0  0  0  0  0  0  0  0  0  0  0
    2.1434   -0.4125    0.0000 O   0  0  0  0  0  0  0  0  0  0  0  0
    2.1434    0.4125    0.0000 C   0  0  1  0  0  0  0  0  0  0  0  0
    1.4289    0.8250    0.0000 C   0  0  0  0  0  0  0  0  0  0  0  0
    1.4289    1.6500    0.0000 N   0  0  0  0  0  0  0  0  0  0  0  0
    2.8579    0.8250    0.0000 C   0  0  1  0  0  0  0  0  0  0  0  0
    3.5723    0.4125    0.0000 C   0  0  0  0  0  0  0  0  0  0  0  0
    2.8579    1.6500    0.0000 C   0  0  0  0  0  0  0  0  0  0  0  0
    2.1434    2.0625    0.0000 C   0  0  0  0  0  0  0  0  0  0  0  0
   -2.1434    2.0625    0.0000 C   0  0  1  0  0  0  0  0  0  0  0  0
   -2.1434    2.8875    0.0000 C   0  0  0  0  0  0  0  0  0  0  0  0
   -2.8579    1.6500    0.0000 C   0  0  0  0  0  0  0  0  0  0  0  0
   -2.8579    0.8250    0.0000 C   0  0  0  0  0  0  0  0  0  0  0  0
   -0.7145   -2.8875    0.0000 C   0  0  2  0  0  0  0  0  0  0  0  0
    0.0000   -3.3000    0.0000 C   0  0  0  0  0  0  0  0  0  0  0  0
   -1.4290   -3.3000    0.0000 C   0  0  0  0  0  0  0  0  0  0  0  0
    0.7144   -2.8875    0.0000 C   0  0  0  0  0  0  0  0  0  0  0  0
    2.1434   -2.0625    0.0000 C   0  0  0  0  0  0  0  0  0  0  0  0
    2.8579   -1.6500    0.0000 C   0  0  0  0  0  0  0  0  0  0  0  0
    3.5723   -2.0625    0.0000 C   0  0  0  0  0  0  0  0  0  0  0  0
    4.2868   -1.6500    0.0000 C   0  0  0  0  0  0  0  0  0  0  0  0
    4.2868   -0.8250    0.0000 C   0  0  0  0  0  0  0  0  0  0  0  0
    3.5723   -0.4125    0.0000 C   0  0  0  0  0  0  0  0  0  0  0  0
    2.8579   -0.8250    0.0000 C   0  0  0  0  0  0  0  0  0  0  0  0
   -2.1434   -0.4125    0.0000 C   0  0  2  0  0  0  0  0  0  0  0  0
   -2.8579   -0.8250    0.0000 C   0  0  0  0  0  0  0  0  0  0  0  0
   -2.8579   -1.6500    0.0000 C   0  0  0  0  0  0  0  0  0  0  0  0
   -3.5724   -2.8875    0.0000 C   0  0  0  0  0  0  0  0  0  0  0  0
   -2.8579   -3.3000    0.0000 C   0  0  0  0  0  0  0  0  0  0  0  0
   -2.1434   -2.8875    0.0000 C   0  0  0  0  0  0  0  0  0  0  0  0
   -2.1434   -2.0625    0.0000 C   0  0  0  0  0  0  0  0  0  0  0  0
   -3.5724   -2.0625    0.0000 C   0  0  0  0  0  0  0  0  0  0  0  0
    0.7144    2.0625    0.0000 C   0  0  1  0  0  0  0  0  0  0  0  0
    0.7144    2.8875    0.0000 C   0  0  0  0  0  0  0  0  0  0  0  0
    0.0000    3.3000    0.0000 C   0  0  0  0  0  0  0  0  0  0  0  0
   -1.4290    3.3000    0.0000 C   0  0  0  0  0  0  0  0  0  0  0  0
   -0.7145    4.5375    0.0000 C   0  0  0  0  0  0  0  0  0  0  0  0
   -1.4290    4.1250    0.0000 C   0  0  0  0  0  0  0  0  0  0  0  0
   -0.7145    2.8875    0.0000 C   0  0  0  0  0  0  0  0  0  0  0  0
    0.0000    4.1250    0.0000 C   0  0  0  0  0  0  0  0  0  0  0  0
 15  1  2  0  0  0  0
 18  2  2  0  0  0  0
 21  3  2  0  0  0  0
  7  4  2  0  0  0  0
 10  5  2  0  0  0  0
 12  6  2  0  0  0  0
 50  7  1  0  0  0  0
  7  8  1  0  0  0  0
  9  8  1  0  0  0  0
  9 27  1  1  0  0  0
  9 10  1  0  0  0  0
 10 11  1  0  0  0  0
 11 30  1  0  0  0  0
 42 11  1  0  0  0  0
 12 13  1  0  0  0  0
 42 12  1  0  0  0  0
 14 13  1  0  0  0  0
 14 31  1  1  0  0  0
 14 15  1  0  0  0  0
 15 16  1  0  0  0  0
 16 34  1  0  0  0  0
 17 16  1  0  0  0  0
 17 18  1  0  0  0  0
 17 35  1  6  0  0  0
 18 19  1  0  0  0  0
 20 19  1  0  0  0  0
 20 21  1  0  0  0  0
 20 23  1  1  0  0  0
 21 22  1  0  0  0  0
 50 22  1  0  0  0  0
 22 26  1  0  0  0  0
 23 24  1  0  0  0  0
 23 25  1  0  0  0  0
 27 28  1  0  0  0  0
 27 29  1  0  0  0  0
 31 32  1  0  0  0  0
 31 33  1  0  0  0  0
 35 36  1  0  0  0  0
 36 37  1  0  0  0  0
 41 36  2  0  0  0  0
 37 38  2  0  0  0  0
 38 39  1  0  0  0  0
 39 40  2  0  0  0  0
 40 41  1  0  0  0  0
 42 43  1  6  0  0  0
 43 44  1  0  0  0  0
 48 44  2  0  0  0  0
 44 49  1  0  0  0  0
 45 46  1  0  0  0  0
 45 49  2  0  0  0  0
 46 47  2  0  0  0  0
 47 48  1  0  0  0  0
 50 51  1  6  0  0  0
 51 52  1  0  0  0  0
 56 52  2  0  0  0  0
 52 57  1  0  0  0  0
 55 53  2  0  0  0  0
 53 56  1  0  0  0  0
 54 55  1  0  0  0  0
 54 57  2  0  0  0  0
M  END
> <ID>
CHEBI:3000

> <NAME>
beauvericin

$$$$

Mrv0541 08211414012D          

201203  0  0  0  0            999 V2000
   21.5321   -8.9069    0.0000 C   0  0  0  0  0  0  0  0  0  0  0  0
   20.8197  -10.1447    0.0000 O   0  0  0  0  0  0  0  0  0  0  0  0
   20.8202   -9.3207    0.0000 C   0  0  0  0  0  0  0  0  0  0  0  0
   19.3817   -9.3103    0.0000 C   0  0  2  0  0  0  0  0  0  0  0  0
   18.6716   -8.0718    0.0000 O   0  0  0  0  0  0  0  0  0  0  0  0
   18.6711   -8.8971    0.0000 C   0  0  0  0  0  0  0  0  0  0  0  0
   19.3811  -10.1342    0.0000 C   0  0  1  0  0  0  0  0  0  0  0  0
   17.2443   -8.8998    0.0000 C   0  0  0  0  0  0  0  0  0  0  0  0
   16.5362  -10.1331    0.0000 O   0  0  0  0  0  0  0  0  0  0  0  0
   16.5369   -9.3091    0.0000 C   0  0  0  0  0  0  0  0  0  0  0  0
   15.1024   -9.3087    0.0000 C   0  0  2  0  0  0  0  0  0  0  0  0
   14.3832   -8.0656    0.0000 O   0  0  0  0  0  0  0  0  0  0  0  0
   14.3826   -8.8954    0.0000 C   0  0  0  0  0  0  0  0  0  0  0  0
   15.1018  -10.1326    0.0000 C   0  0  0  0  0  0  0  0  0  0  0  0
   12.9672   -8.8902    0.0000 C   0  0  2  0  0  0  0  0  0  0  0  0
   12.2455  -10.1234    0.0000 O   0  0  0  0  0  0  0  0  0  0  0  0
   12.2461   -9.2994    0.0000 C   0  0  0  0  0  0  0  0  0  0  0  0
   12.9678   -8.0648    0.0000 C   0  0  0  0  0  0  0  0  0  0  0  0
   12.2473   -7.6500    0.0000 C   0  0  0  0  0  0  0  0  0  0  0  0
   10.8034   -9.3087    0.0000 C   0  0  2  0  0  0  0  0  0  0  0  0
   10.0852   -8.0656    0.0000 O   0  0  0  0  0  0  0  0  0  0  0  0
   10.0846   -8.8909    0.0000 C   0  0  0  0  0  0  0  0  0  0  0  0
   10.8028  -10.1326    0.0000 C   0  0  0  0  0  0  0  0  0  0  0  0
   22.2384   -9.3333    0.0000 N   0  0  0  0  0  0  0  0  0  0  0  0
   20.1038   -8.9115    0.0000 N   0  0  0  0  0  0  0  0  0  0  0  0
   17.9585   -9.3128    0.0000 N   0  0  0  0  0  0  0  0  0  0  0  0
   15.8197   -8.9011    0.0000 N   0  0  0  0  0  0  0  0  0  0  0  0
   13.6733   -9.3168    0.0000 N   0  0  0  0  0  0  0  0  0  0  0  0
   11.5222   -8.9038    0.0000 N   0  0  0  0  0  0  0  0  0  0  0  0
   10.0704  -10.5551    0.0000 C   0  0  0  0  0  0  0  0  0  0  0  0
    9.3731   -9.3085    0.0000 N   0  0  0  0  0  0  0  0  0  0  0  0
   18.6665  -10.5462    0.0000 C   0  0  0  0  0  0  0  0  0  0  0  0
   20.0953  -10.5472    0.0000 C   0  0  0  0  0  0  0  0  0  0  0  0
   20.0948  -11.3722    0.0000 C   0  0  0  0  0  0  0  0  0  0  0  0
   13.6822   -7.6522    0.0000 C   0  0  0  0  0  0  0  0  0  0  0  0
   10.0701  -11.3801    0.0000 C   0  0  0  0  0  0  0  0  0  0  0  0
    9.3561  -10.1424    0.0000 C   0  0  0  0  0  0  0  0  0  0  0  0
    8.6667   -8.8824    0.0000 C   0  0  2  0  0  0  0  0  0  0  0  0
    7.9284   -9.2900    0.0000 C   0  0  0  0  0  0  0  0  0  0  0  0
    7.9284  -10.1062    0.0000 O   0  0  0  0  0  0  0  0  0  0  0  0
    7.2377   -8.8551    0.0000 N   0  0  0  0  0  0  0  0  0  0  0  0
    6.5194   -9.2609    0.0000 C   0  0  2  0  0  0  0  0  0  0  0  0
    5.8056   -8.0224    0.0000 O   0  0  0  0  0  0  0  0  0  0  0  0
    5.8051   -8.8478    0.0000 C   0  0  0  0  0  0  0  0  0  0  0  0
    6.5188  -10.0849    0.0000 C   0  0  0  0  0  0  0  0  0  0  0  0
    5.8039  -10.4971    0.0000 C   0  0  0  0  0  0  0  0  0  0  0  0
    4.3818   -8.8453    0.0000 C   0  0  2  0  0  0  0  0  0  0  0  0
    3.6716  -10.0785    0.0000 O   0  0  0  0  0  0  0  0  0  0  0  0
    3.6721   -9.2545    0.0000 C   0  0  0  0  0  0  0  0  0  0  0  0
    4.3824   -8.0154    0.0000 C   0  0  0  0  0  0  0  0  0  0  0  0
    2.2422   -9.2583    0.0000 C   0  0  2  0  0  0  0  0  0  0  0  0
    1.5241   -8.0197    0.0000 O   0  0  0  0  0  0  0  0  0  0  0  0
    1.5235   -8.8450    0.0000 C   0  0  0  0  0  0  0  0  0  0  0  0
    2.2417  -10.0821    0.0000 C   0  0  2  0  0  0  0  0  0  0  0  0
    1.5224  -10.4945    0.0000 O   0  0  0  0  0  0  0  0  0  0  0  0
    0.0988   -8.8473    0.0000 C   0  0  2  0  0  0  0  0  0  0  0  0
    0.8220   -7.6145    0.0000 O   0  0  0  0  0  0  0  0  0  0  0  0
    0.1060   -8.0219    0.0000 C   0  0  0  0  0  0  0  0  0  0  0  0
   -0.6185   -9.2553    0.0000 C   0  0  2  0  0  0  0  0  0  0  0  0
   -1.3316   -8.8399    0.0000 O   0  0  0  0  0  0  0  0  0  0  0  0
   -0.6188   -6.7802    0.0000 C   0  0  0  0  0  0  0  0  0  0  0  0
   -2.0504   -6.7894    0.0000 O   0  0  0  0  0  0  0  0  0  0  0  0
   -1.3394   -6.3703    0.0000 C   0  0  0  0  0  0  0  0  0  0  0  0
   -2.0653   -5.1404    0.0000 C   0  0  2  0  0  0  0  0  0  0  0  0
   -1.3625   -3.9030    0.0000 O   0  0  0  0  0  0  0  0  0  0  0  0
   -2.0723   -4.3213    0.0000 C   0  0  0  0  0  0  0  0  0  0  0  0
   -2.7764   -5.5594    0.0000 C   0  0  0  0  0  0  0  0  0  0  0  0
    5.0927   -9.2638    0.0000 N   0  0  0  0  0  0  0  0  0  0  0  0
    2.9561   -8.8448    0.0000 N   0  0  0  0  0  0  0  0  0  0  0  0
    0.8118   -9.2622    0.0000 N   0  0  0  0  0  0  0  0  0  0  0  0
   -0.6059   -7.6052    0.0000 N   0  0  0  0  0  0  0  0  0  0  0  0
   -1.3466   -5.5453    0.0000 N   0  0  0  0  0  0  0  0  0  0  0  0
   -2.7824   -3.9012    0.0000 N   0  0  0  0  0  0  0  0  0  0  0  0
    3.6682   -7.6024    0.0000 C   0  0  0  0  0  0  0  0  0  0  0  0
    8.6825   -8.0576    0.0000 C   0  0  0  0  0  0  0  0  0  0  0  0
    9.4048   -7.6588    0.0000 C   0  0  0  0  0  0  0  0  0  0  0  0
    9.4206   -6.8340    0.0000 C   0  0  0  0  0  0  0  0  0  0  0  0
   10.1428   -6.4353    0.0000 C   0  0  0  0  0  0  0  0  0  0  0  0
   10.1587   -5.6104    0.0000 N   0  0  0  0  0  0  0  0  0  0  0  0
    7.2330  -10.4979    0.0000 C   0  0  0  0  0  0  0  0  0  0  0  0
    3.6688   -6.7774    0.0000 C   0  0  0  0  0  0  0  0  0  0  0  0
    2.9535   -8.0144    0.0000 C   0  0  0  0  0  0  0  0  0  0  0  0
    2.9554  -10.4959    0.0000 C   0  0  0  0  0  0  0  0  0  0  0  0
   -0.6227  -10.0803    0.0000 C   0  0  0  0  0  0  0  0  0  0  0  0
   -1.9816   -2.6683    0.0000 C   0  0  0  0  0  0  0  0  0  0  0  0
   -1.2672   -3.0808    0.0000 O   0  0  0  0  0  0  0  0  0  0  0  0
   -2.6961   -3.0808    0.0000 C   0  0  2  0  0  0  0  0  0  0  0  0
   -3.4498   -2.7452    0.0000 C   0  0  0  0  0  0  0  0  0  0  0  0
   -4.0018   -3.3583    0.0000 C   0  0  0  0  0  0  0  0  0  0  0  0
   -3.5893   -4.0727    0.0000 C   0  0  0  0  0  0  0  0  0  0  0  0
   -1.9816   -1.8433    0.0000 N   0  0  0  0  0  0  0  0  0  0  0  0
   -1.2644   -1.4355    0.0000 C   0  0  2  0  0  0  0  0  0  0  0  0
   -1.9812   -0.2034    0.0000 O   0  0  0  0  0  0  0  0  0  0  0  0
   -1.2657   -0.6123    0.0000 C   0  0  0  0  0  0  0  0  0  0  0  0
   -0.5479   -1.8451    0.0000 C   0  0  0  0  0  0  0  0  0  0  0  0
   -0.5748    0.6337    0.0000 C   0  0  2  0  0  0  0  0  0  0  0  0
    0.8608    0.6413    0.0000 O   0  0  0  0  0  0  0  0  0  0  0  0
    0.1443    1.0509    0.0000 C   0  0  0  0  0  0  0  0  0  0  0  0
   -1.2900    1.0426    0.0000 C   0  0  0  0  0  0  0  0  0  0  0  0
   -1.2915    1.8716    0.0000 C   0  0  0  0  0  0  0  0  0  0  0  0
   -2.0069    2.2805    0.0000 C   0  0  0  0  0  0  0  0  0  0  0  0
    0.8604    2.2899    0.0000 C   0  0  2  0  0  0  0  0  0  0  0  0
    1.5743    1.0562    0.0000 O   0  0  0  0  0  0  0  0  0  0  0  0
    1.5743    1.8802    0.0000 C   0  0  0  0  0  0  0  0  0  0  0  0
    0.8604    3.1199    0.0000 C   0  0  1  0  0  0  0  0  0  0  0  0
    1.5743    3.5296    0.0000 C   0  0  0  0  0  0  0  0  0  0  0  0
    3.0025    1.8728    0.0000 C   0  0  2  0  0  0  0  0  0  0  0  0
    3.7168    3.1108    0.0000 O   0  0  0  0  0  0  0  0  0  0  0  0
    3.7168    2.2855    0.0000 C   0  0  0  0  0  0  0  0  0  0  0  0
    3.0025    1.0488    0.0000 C   0  0  0  0  0  0  0  0  0  0  0  0
    5.1490    2.2845    0.0000 C   0  0  2  0  0  0  0  0  0  0  0  0
    5.8585    1.0507    0.0000 O   0  0  0  0  0  0  0  0  0  0  0  0
    5.8585    1.8747    0.0000 C   0  0  0  0  0  0  0  0  0  0  0  0
    5.1490    3.1144    0.0000 C   0  0  0  0  0  0  0  0  0  0  0  0
    7.2885    1.8694    0.0000 C   0  0  2  0  0  0  0  0  0  0  0  0
    8.0029    2.2820    0.0000 C   0  0  0  0  0  0  0  0  0  0  0  0
    7.2885    1.0453    0.0000 C   0  0  1  0  0  0  0  0  0  0  0  0
    8.0029    0.6326    0.0000 C   0  0  0  0  0  0  0  0  0  0  0  0
   -0.5564   -0.1911    0.0000 N   0  0  0  0  0  0  0  0  0  0  0  0
    0.1469    1.8759    0.0000 N   0  0  0  0  0  0  0  0  0  0  0  0
    2.2905    2.2896    0.0000 N   0  0  0  0  0  0  0  0  0  0  0  0
    4.4327    1.8754    0.0000 N   0  0  0  0  0  0  0  0  0  0  0  0
    6.5749    2.2836    0.0000 N   0  0  0  0  0  0  0  0  0  0  0  0
    8.7204    1.8749    0.0000 N   0  0  0  0  0  0  0  0  0  0  0  0
    3.7169    0.6363    0.0000 O   0  0  0  0  0  0  0  0  0  0  0  0
    7.9998    3.1070    0.0000 O   0  0  0  0  0  0  0  0  0  0  0  0
    9.4374    2.2830    0.0000 C   0  0  2  0  0  0  0  0  0  0  0  0
   10.1511    1.0491    0.0000 O   0  0  0  0  0  0  0  0  0  0  0  0
   10.1511    1.8733    0.0000 C   0  0  0  0  0  0  0  0  0  0  0  0
   11.5742    1.8744    0.0000 C   0  0  1  0  0  0  0  0  0  0  0  0
   12.2886    3.1171    0.0000 O   0  0  0  0  0  0  0  0  0  0  0  0
   11.5742    1.0550    0.0000 C   0  0  0  0  0  0  0  0  0  0  0  0
   12.2886    2.2871    0.0000 C   0  0  0  0  0  0  0  0  0  0  0  0
   10.8623    2.2915    0.0000 N   0  0  0  0  0  0  0  0  0  0  0  0
   13.0057    1.8795    0.0000 N   0  0  0  0  0  0  0  0  0  0  0  0
    9.4389    3.1080    0.0000 C   0  0  0  0  0  0  0  0  0  0  0  0
   -0.5783    2.2863    0.0000 C   0  0  0  0  0  0  0  0  0  0  0  0
    0.1464    3.5334    0.0000 C   0  0  0  0  0  0  0  0  0  0  0  0
    0.1475    4.3584    0.0000 C   0  0  0  0  0  0  0  0  0  0  0  0
    5.8635    3.5269    0.0000 C   0  0  0  0  0  0  0  0  0  0  0  0
    5.9498    4.3474    0.0000 C   0  0  0  0  0  0  0  0  0  0  0  0
    6.6172    3.1914    0.0000 C   0  0  0  0  0  0  0  0  0  0  0  0
    6.7567    4.5189    0.0000 C   0  0  0  0  0  0  0  0  0  0  0  0
    7.1693    3.8046    0.0000 N   0  0  0  0  0  0  0  0  0  0  0  0
    7.0303    5.2973    0.0000 C   0  0  0  0  0  0  0  0  0  0  0  0
    6.4930    5.9234    0.0000 C   0  0  0  0  0  0  0  0  0  0  0  0
    5.6822    5.7711    0.0000 C   0  0  0  0  0  0  0  0  0  0  0  0
    5.4086    4.9928    0.0000 C   0  0  0  0  0  0  0  0  0  0  0  0
    6.5740    0.6329    0.0000 C   0  0  0  0  0  0  0  0  0  0  0  0
    6.5719   -0.1921    0.0000 C   0  0  0  0  0  0  0  0  0  0  0  0
   10.1542    3.5192    0.0000 C   0  0  0  0  0  0  0  0  0  0  0  0
   10.1557    4.3442    0.0000 C   0  0  0  0  0  0  0  0  0  0  0  0
   10.8709    4.7554    0.0000 C   0  0  0  0  0  0  0  0  0  0  0  0
   10.8724    5.5804    0.0000 N   0  0  0  0  0  0  0  0  0  0  0  0
   12.2886    0.6425    0.0000 C   0  0  0  0  0  0  0  0  0  0  0  0
   12.2886   -0.1825    0.0000 C   0  0  0  0  0  0  0  0  0  0  0  0
   13.0031   -0.5950    0.0000 N   0  0  0  0  0  0  0  0  0  0  0  0
   13.0031   -1.4199    0.0000 C   0  0  0  0  0  0  0  0  0  0  0  0
   13.7176   -1.8324    0.0000 N   0  0  0  0  0  0  0  0  0  0  0  0
   12.2887   -1.8325    0.0000 N   0  0  0  0  0  0  0  0  0  0  0  0
   13.7227    2.2876    0.0000 C   0  0  2  0  0  0  0  0  0  0  0  0
   14.4364    1.0537    0.0000 O   0  0  0  0  0  0  0  0  0  0  0  0
   14.4364    1.8779    0.0000 C   0  0  0  0  0  0  0  0  0  0  0  0
   15.8595    1.8790    0.0000 C   0  0  1  0  0  0  0  0  0  0  0  0
   16.5739    3.1217    0.0000 O   0  0  0  0  0  0  0  0  0  0  0  0
   15.8595    1.0596    0.0000 C   0  0  0  0  0  0  0  0  0  0  0  0
   16.5739    2.2917    0.0000 C   0  0  0  0  0  0  0  0  0  0  0  0
   15.1476    2.2961    0.0000 N   0  0  0  0  0  0  0  0  0  0  0  0
   17.2910    1.8841    0.0000 N   0  0  0  0  0  0  0  0  0  0  0  0
   13.7242    3.1126    0.0000 C   0  0  0  0  0  0  0  0  0  0  0  0
   14.4394    3.5238    0.0000 C   0  0  0  0  0  0  0  0  0  0  0  0
   14.4409    4.3488    0.0000 C   0  0  0  0  0  0  0  0  0  0  0  0
   15.1562    4.7600    0.0000 C   0  0  0  0  0  0  0  0  0  0  0  0
   15.1577    5.5850    0.0000 N   0  0  0  0  0  0  0  0  0  0  0  0
   16.5739    0.6471    0.0000 C   0  0  0  0  0  0  0  0  0  0  0  0
   16.5739   -0.1779    0.0000 C   0  0  0  0  0  0  0  0  0  0  0  0
   17.2884   -0.5904    0.0000 N   0  0  0  0  0  0  0  0  0  0  0  0
   17.2884   -1.4153    0.0000 C   0  0  0  0  0  0  0  0  0  0  0  0
   18.0029   -1.8278    0.0000 N   0  0  0  0  0  0  0  0  0  0  0  0
   16.5740   -1.8279    0.0000 N   0  0  0  0  0  0  0  0  0  0  0  0
   18.0080    2.2922    0.0000 C   0  0  2  0  0  0  0  0  0  0  0  0
   18.7217    1.0583    0.0000 O   0  0  0  0  0  0  0  0  0  0  0  0
   18.7217    1.8825    0.0000 C   0  0  0  0  0  0  0  0  0  0  0  0
   20.1448    1.8836    0.0000 C   0  0  1  0  0  0  0  0  0  0  0  0
   20.8592    3.1263    0.0000 O   0  0  0  0  0  0  0  0  0  0  0  0
   20.1448    1.0642    0.0000 C   0  0  0  0  0  0  0  0  0  0  0  0
   20.8592    2.2963    0.0000 C   0  0  0  0  0  0  0  0  0  0  0  0
   19.4329    2.3007    0.0000 N   0  0  0  0  0  0  0  0  0  0  0  0
   21.5763    1.8887    0.0000 N   0  0  0  0  0  0  0  0  0  0  0  0
   18.0095    3.1172    0.0000 C   0  0  0  0  0  0  0  0  0  0  0  0
   18.7247    3.5284    0.0000 C   0  0  0  0  0  0  0  0  0  0  0  0
   20.8592    0.6517    0.0000 C   0  0  0  0  0  0  0  0  0  0  0  0
   20.8592   -0.1733    0.0000 C   0  0  0  0  0  0  0  0  0  0  0  0
   21.5737   -0.5858    0.0000 N   0  0  0  0  0  0  0  0  0  0  0  0
   18.7263    4.3534    0.0000 C   0  0  0  0  0  0  0  0  0  0  0  0
   18.0125    4.7672    0.0000 O   0  0  0  0  0  0  0  0  0  0  0  0
   19.4416    4.7646    0.0000 N   0  0  0  0  0  0  0  0  0  0  0  0
   20.1447   -0.5858    0.0000 O   0  0  0  0  0  0  0  0  0  0  0  0
   -3.6014   -5.5594    0.0000 C   0  0  0  0  0  0  0  0  0  0  0  0
   -4.0139   -6.2739    0.0000 C   0  0  0  0  0  0  0  0  0  0  0  0
   -4.0139   -4.8450    0.0000 C   0  0  0  0  0  0  0  0  0  0  0  0
  1  3  1  0  0  0  0
  3  2  2  0  0  0  0
  4  6  1  0  0  0  0
  6  5  2  0  0  0  0
  4  7  1  0  0  0  0
  8 10  1  0  0  0  0
 10  9  2  0  0  0  0
 11 13  1  0  0  0  0
 13 12  2  0  0  0  0
 11 14  1  1  0  0  0
 15 17  1  0  0  0  0
 17 16  2  0  0  0  0
 15 18  1  6  0  0  0
 18 19  1  0  0  0  0
 20 22  1  0  0  0  0
 22 21  2  0  0  0  0
 20 23  1  1  0  0  0
 28 15  1  0  0  0  0
 13 28  1  0  0  0  0
 29 20  1  0  0  0  0
 17 29  1  0  0  0  0
 23 30  1  0  0  0  0
 22 31  1  0  0  0  0
 24  1  1  0  0  0  0
  4 25  1  1  0  0  0
  3 25  1  0  0  0  0
 26  8  1  0  0  0  0
  6 26  1  0  0  0  0
 27 11  1  0  0  0  0
 10 27  1  0  0  0  0
  7 32  1  6  0  0  0
  7 33  1  0  0  0  0
 33 34  1  0  0  0  0
 18 35  1  0  0  0  0
 30 36  1  0  0  0  0
 30 37  1  0  0  0  0
 38 39  1  6  0  0  0
 39 40  2  0  0  0  0
 39 41  1  0  0  0  0
 42 44  1  0  0  0  0
 44 43  2  0  0  0  0
 42 45  1  0  0  0  0
 45 46  1  0  0  0  0
 47 49  1  0  0  0  0
 49 48  2  0  0  0  0
 47 50  1  0  0  0  0
 51 53  1  0  0  0  0
 53 52  2  0  0  0  0
 51 54  1  0  0  0  0
 54 55  1  1  0  0  0
 56 58  1  0  0  0  0
 58 57  2  0  0  0  0
 56 59  1  0  0  0  0
 59 60  1  1  0  0  0
 61 63  1  0  0  0  0
 63 62  2  0  0  0  0
 64 66  1  0  0  0  0
 66 65  2  0  0  0  0
 64 67  1  1  0  0  0
 72 64  1  0  0  0  0
 63 72  1  0  0  0  0
 66 73  1  0  0  0  0
 42 41  1  1  0  0  0
 47 68  1  6  0  0  0
 44 68  1  0  0  0  0
 51 69  1  1  0  0  0
 49 69  1  0  0  0  0
 56 70  1  1  0  0  0
 53 70  1  0  0  0  0
 71 61  1  0  0  0  0
 58 71  1  0  0  0  0
 50 74  1  0  0  0  0
 38 31  1  0  0  0  0
 38 75  1  0  0  0  0
 75 76  1  0  0  0  0
 76 77  1  0  0  0  0
 77 78  1  0  0  0  0
 78 79  1  0  0  0  0
 45 80  1  0  0  0  0
 74 81  1  0  0  0  0
 74 82  1  0  0  0  0
 54 83  1  0  0  0  0
 59 84  1  0  0  0  0
 85 86  2  0  0  0  0
 87 85  1  0  0  0  0
 87 88  1  0  0  0  0
 87 73  1  1  0  0  0
 88 89  1  0  0  0  0
 89 90  1  0  0  0  0
 90 73  1  0  0  0  0
 91 85  1  0  0  0  0
 92 94  1  0  0  0  0
 94 93  2  0  0  0  0
 92 95  1  6  0  0  0
 96 98  1  0  0  0  0
 98 97  2  0  0  0  0
 96 99  1  1  0  0  0
 99100  1  0  0  0  0
100101  1  0  0  0  0
102104  1  0  0  0  0
104103  2  0  0  0  0
102105  1  0  0  0  0
105106  1  6  0  0  0
107109  1  0  0  0  0
109108  2  0  0  0  0
107110  1  6  0  0  0
111113  1  0  0  0  0
113112  2  0  0  0  0
111114  1  0  0  0  0
115116  1  0  0  0  0
115117  1  0  0  0  0
117118  1  1  0  0  0
 91 92  1  0  0  0  0
119 96  1  0  0  0  0
 94119  1  0  0  0  0
102120  1  1  0  0  0
 98120  1  0  0  0  0
121107  1  0  0  0  0
104121  1  0  0  0  0
111122  1  1  0  0  0
109122  1  0  0  0  0
115123  1  6  0  0  0
113123  1  0  0  0  0
116124  1  0  0  0  0
110125  1  0  0  0  0
116126  2  0  0  0  0
127129  1  0  0  0  0
129128  2  0  0  0  0
130133  1  0  0  0  0
133131  2  0  0  0  0
130132  1  6  0  0  0
127124  1  1  0  0  0
134130  1  0  0  0  0
129134  1  0  0  0  0
133135  1  0  0  0  0
127136  1  0  0  0  0
100137  1  0  0  0  0
105138  1  0  0  0  0
138139  1  0  0  0  0
141140  1  0  0  0  0
142140  2  0  0  0  0
144142  1  0  0  0  0
144143  1  0  0  0  0
114140  1  0  0  0  0
143145  1  0  0  0  0
146145  2  0  0  0  0
141143  2  0  0  0  0
147146  1  0  0  0  0
148141  1  0  0  0  0
148147  2  0  0  0  0
117149  1  0  0  0  0
149150  1  0  0  0  0
136151  1  0  0  0  0
151152  1  0  0  0  0
152153  1  0  0  0  0
153154  1  0  0  0  0
132155  1  0  0  0  0
157156  1  0  0  0  0
155156  1  0  0  0  0
157158  1  0  0  0  0
158159  2  0  0  0  0
158160  1  0  0  0  0
161163  1  0  0  0  0
163162  2  0  0  0  0
164167  1  0  0  0  0
167165  2  0  0  0  0
164166  1  6  0  0  0
161135  1  1  0  0  0
168164  1  0  0  0  0
163168  1  0  0  0  0
167169  1  0  0  0  0
161170  1  0  0  0  0
170171  1  0  0  0  0
171172  1  0  0  0  0
172173  1  0  0  0  0
173174  1  0  0  0  0
166175  1  0  0  0  0
177176  1  0  0  0  0
175176  1  0  0  0  0
177178  1  0  0  0  0
178179  2  0  0  0  0
178180  1  0  0  0  0
181183  1  0  0  0  0
183182  2  0  0  0  0
184187  1  0  0  0  0
187185  2  0  0  0  0
184186  1  6  0  0  0
181169  1  1  0  0  0
188184  1  0  0  0  0
183188  1  0  0  0  0
187189  1  0  0  0  0
181190  1  0  0  0  0
190191  1  0  0  0  0
186192  1  0  0  0  0
194193  1  0  0  0  0
192193  1  0  0  0  0
196195  2  0  0  0  0
197195  1  0  0  0  0
191195  1  0  0  0  0
193198  2  0  0  0  0
 67199  1  0  0  0  0
199200  1  0  0  0  0
199201  1  0  0  0  0
M  END
> <ID>
CHEBI:6736

> <NAME>
melittin

$$$$

Ketcher 03211612582D 1   1.00000     0.00000     0

 72 73  0     1  0            999 V2000
    1.7241   -0.9953    0.0000 C   0  0  0  0  0  0  0  0  0  0  0  0
    2.5862   -0.4976    0.0000 C   0  0  0  0  0  0  0  0  0  0  0  0
    3.4482   -0.9953    0.0000 C   0  0  0  0  0  0  0  0  0  0  0  0
    5.1723   -0.9953    0.0000 C   0  0  0  0  0  0  0  0  0  0  0  0
    6.8965   -0.9952    0.0000 C   0  0  0  0  0  0  0  0  0  0  0  0
    7.7584   -0.4975    0.0000 C   0  0  0  0  0  0  0  0  0  0  0  0
    2.5861    0.4978    0.0000 O   0  0  0  0  0  0  0  0  0  0  0  0
    7.7584    0.4978    0.0000 C   0  0  0  0  0  0  0  0  0  0  0  0
    8.6205    0.9956    0.0000 C   0  0  0  0  0  0  0  0  0  0  0  0
    8.6205   -1.9906    0.0000 C   0  0  0  0  0  0  0  0  0  0  0  0
    9.4826   -2.4883    0.0000 C   0  0  0  0  0  0  0  0  0  0  0  0
    9.4826   -3.4837    0.0000 C   0  0  0  0  0  0  0  0  0  0  0  0
    8.6206   -4.9768    0.0000 C   0  0  0  0  0  0  0  0  0  0  0  0
   11.2067   -2.4882    0.0000 C   0  0  0  0  0  0  0  0  0  0  0  0
   12.0686   -1.9905    0.0000 C   0  0  0  0  0  0  0  0  0  0  0  0
   11.2067   -3.4837    0.0000 O   0  0  0  0  0  0  0  0  0  0  0  0
   12.9308   -2.4882    0.0000 C   0  0  0  0  0  0  0  0  0  0  0  0
   12.9308   -3.4837    0.0000 C   0  0  0  0  0  0  0  0  0  0  0  0
   13.7927   -3.9814    0.0000 O   0  0  0  0  0  0  0  0  0  0  0  0
   12.0688   -3.9814    0.0000 O   0  0  0  0  0  0  0  0  0  0  0  0
    7.7584   -1.4929    0.0000 H   0  0  0  0  0  0  0  0  0  0  0  0
   14.6548   -2.4882    0.0000 C   0  0  0  0  0  0  0  0  0  0  0  0
   14.6548   -3.4837    0.0000 O   0  0  0  0  0  0  0  0  0  0  0  0
    8.6205    1.9910    0.0000 N   0  0  0  0  0  0  0  0  0  0  0  0
    9.4824    2.4887    0.0000 C   0  0  0  0  0  0  0  0  0  0  0  0
    9.4824    3.4841    0.0000 C   0  0  0  0  0  0  0  0  0  0  0  0
   11.2065    2.4887    0.0000 C   0  0  0  0  0  0  0  0  0  0  0  0
   12.0686    1.9911    0.0000 C   0  0  0  0  0  0  0  0  0  0  0  0
   12.9308    2.4888    0.0000 N   0  0  0  0  0  0  0  0  0  0  0  0
   13.7926    1.9911    0.0000 C   0  0  0  0  0  0  0  0  0  0  0  0
   12.9306    3.4841    0.0000 C   0  0  0  0  0  0  0  0  0  0  0  0
   14.6547    3.4843    0.0000 O   0  0  0  0  0  0  0  0  0  0  0  0
   10.3446    3.9819    0.0000 O   0  0  0  0  0  0  0  0  0  0  0  0
    8.6203    3.9819    0.0000 O   0  0  0  0  0  0  0  0  0  0  0  0
   10.3446    1.9910    0.0000 C   0  0  0  0  0  0  0  0  0  0  0  0
    8.6205   -0.9952    0.0000 N   0  0  0  0  0  0  0  0  0  0  0  0
    9.4826    0.4980    0.0000 O   0  0  0  0  0  0  0  0  0  0  0  0
   10.3447   -1.9906    0.0000 N   0  0  0  0  0  0  0  0  0  0  0  0
   12.0686    0.9957    0.0000 O   0  0  0  0  0  0  0  0  0  0  0  0
   13.7927    0.9957    0.0000 C   0  0  0  0  0  0  0  0  0  0  0  0
   12.0686   -0.9952    0.0000 C   0  0  0  0  0  0  0  0  0  0  0  0
   13.7927   -1.9905    0.0000 N   0  0  0  0  0  0  0  0  0  0  0  0
   15.5170   -1.9905    0.0000 C   0  0  0  0  0  0  0  0  0  0  0  0
    6.0344   -0.4976    0.0000 C   0  0  0  0  0  0  0  0  0  0  0  0
    6.8964    0.9956    0.0000 C   0  0  0  0  0  0  0  0  0  0  0  0
    7.7585   -2.4883    0.0000 O   0  0  0  0  0  0  0  0  0  0  0  0
    8.6206   -3.9814    0.0000 C   0  0  0  0  0  0  0  0  0  0  0  0
    3.4483   -1.9907    0.0000 C   0  0  0  0  0  0  0  0  0  0  0  0
    5.1723   -1.9906    0.0000 C   0  0  0  0  0  0  0  0  0  0  0  0
    4.3103   -0.4976    0.0000 C   0  0  0  0  0  0  0  0  0  0  0  0
    3.4482    0.9956    0.0000 C   0  0  0  0  0  0  0  0  0  0  0  0
   15.5168   -0.9951    0.0000 N   0  0  0  0  0  0  0  0  0  0  0  0
   15.5184    0.6343    0.0000 C   0  0  0  0  0  0  0  0  0  0  0  0
   14.6255    0.2936    0.0000 C   0  0  0  0  0  0  0  0  0  0  0  0
   16.1101   -0.1806    0.0000 C   0  0  0  0  0  0  0  0  0  0  0  0
   17.0952   -0.1806    0.0000 O   0  0  0  0  0  0  0  0  0  0  0  0
   14.6547    2.4888    0.0000 C   0  0  0  0  0  0  0  0  0  0  0  0
   15.5168    1.9911    0.0000 N   0  0  0  0  0  0  0  0  0  0  0  0
   16.3788   -2.4882    0.0000 C   0  0  0  0  0  0  0  0  0  0  0  0
    6.8964   -3.9815    0.0000 N   0  0  0  0  0  0  0  0  0  0  0  0
    6.8964   -4.9768    0.0000 C   0  0  0  0  0  0  0  0  0  0  0  0
    7.7585   -5.4745    0.0000 N   0  0  0  0  0  0  0  0  0  0  0  0
    6.0344   -5.4745    0.0000 N   0  0  0  0  0  0  0  0  0  0  0  0
    1.7241   -1.9953    0.0000 C   0  0  0  0  0  0  0  0  0  0  0  0
    2.5901   -2.4953    0.0000 C   0  0  0  0  0  0  0  0  0  0  0  0
    2.5901   -3.4953    0.0000 C   0  0  0  0  0  0  0  0  0  0  0  0
    1.7241   -3.9953    0.0000 C   0  0  0  0  0  0  0  0  0  0  0  0
    0.8581   -3.4953    0.0000 C   0  0  0  0  0  0  0  0  0  0  0  0
    0.8581   -2.4953    0.0000 C   0  0  0  0  0  0  0  0  0  0  0  0
   16.3788   -3.4882    0.0000 C   0  0  0  0  0  0  0  0  0  0  0  0
   15.5128   -3.9882    0.0000 C   0  0  0  0  0  0  0  0  0  0  0  0
   17.2448   -3.9882    0.0000 C   0  0  0  0  0  0  0  0  0  0  0  0
  1  2  1  0     0  0
  2  7  1  6     0  0
  2  3  1  0     0  0
  3 48  1  6     0  0
  3 50  1  0     0  0
  4 49  1  0     0  0
 50  4  2  0     0  0
  4 44  1  0     0  0
  5  6  1  0     0  0
 44  5  2  0     0  0
  6 36  1  0     0  0
  6 21  1  6     0  0
  6  8  1  0     0  0
  7 51  1  0     0  0
  8  9  1  0     0  0
  8 45  1  6     0  0
  9 37  2  0     0  0
  9 24  1  0     0  0
 36 10  1  0     0  0
 10 11  1  0     0  0
 10 46  2  0     0  0
 11 12  1  1     0  0
 11 38  1  0     0  0
 12 47  1  0     0  0
 47 13  1  0     0  0
 13 62  1  0     0  0
 38 14  1  0     0  0
 14 15  1  0     0  0
 14 16  2  0     0  0
 15 17  1  0     0  0
 15 41  1  1     0  0
 17 18  1  1     0  0
 17 42  1  0     0  0
 18 19  1  0     0  0
 18 20  2  0     0  0
 42 22  1  0     0  0
 22 43  1  0     0  0
 22 23  2  0     0  0
 24 25  1  0     0  0
 25 26  1  1     0  0
 25 35  1  0     0  0
 26 33  1  0     0  0
 26 34  2  0     0  0
 35 27  1  0     0  0
 27 28  1  0     0  0
 28 29  1  0     0  0
 28 39  2  0     0  0
 29 30  1  0     0  0
 29 31  1  0     0  0
 30 57  1  0     0  0
 30 40  2  0     0  0
 57 32  2  0     0  0
 43 59  1  1     0  0
 43 52  1  0     0  0
 52 55  1  0     0  0
 53 54  1  1     0  0
 55 53  1  0     0  0
 58 53  1  0     0  0
 55 56  2  0     0  0
 57 58  1  0     0  0
 60 61  2  0     0  0
 61 62  1  0     0  0
 61 63  1  0     0  0
  1 64  1  0     0  0
 64 65  1  0     0  0
 65 66  2  0     0  0
 66 67  1  0     0  0
 67 68  2  0     0  0
 68 69  1  0     0  0
 69 64  2  0     0  0
 59 70  1  0     0  0
 70 71  1  0     0  0
 70 72  1  0     0  0
M  END
> <ID>
CHEBI:6925

> <NAME>
microcystin-LR

$$$$

Marvin  07100912442D          

 44 45  0  0  1  0            999 V2000
    7.4737   -2.6577    0.0000 C   0  0  2  0  0  0  0  0  0  0  0  0
    6.7619   -3.0693    0.0000 C   0  0  1  0  0  0  0  0  0  0  0  0
    6.0531   -2.6422    0.0000 C   0  0  1  0  0  0  0  0  0  0  0  0
    5.3443   -3.0539    0.0000 C   0  0  2  0  0  0  0  0  0  0  0  0
    4.6324   -2.6268    0.0000 C   0  0  2  0  0  0  0  0  0  0  0  0
    3.9205   -3.0384    0.0000 C   0  0  0  0  0  0  0  0  0  0  0  0
    3.2149   -2.6113    0.0000 C   0  0  0  0  0  0  0  0  0  0  0  0
    2.4999   -3.0230    0.0000 C   0  0  0  0  0  0  0  0  0  0  0  0
    1.7911   -2.5927    0.0000 C   0  0  0  0  0  0  0  0  0  0  0  0
    1.0730   -2.9982    0.0000 C   0  0  0  0  0  0  0  0  0  0  0  0
    1.2217   -3.7812    0.0000 C   0  0  1  0  0  0  0  0  0  0  0  0
    1.0916   -4.6509    0.0000 C   0  0  1  0  0  0  0  0  0  0  0  0
    1.7788   -5.0503    0.0000 C   0  0  1  0  0  0  0  0  0  0  0  0
    2.4566   -4.6448    0.0000 C   0  0  0  0  0  0  0  0  0  0  0  0
    3.1406   -5.0440    0.0000 C   0  0  0  0  0  0  0  0  0  0  0  0
    3.8184   -4.6386    0.0000 C   0  0  0  0  0  0  0  0  0  0  0  0
    4.5024   -5.0347    0.0000 C   0  0  0  0  0  0  0  0  0  0  0  0
    5.1803   -4.6324    0.0000 C   0  0  0  0  0  0  0  0  0  0  0  0
    5.4371   -3.7626    0.0000 O   0  0  0  0  0  0  0  0  0  0  0  0
    5.8642   -5.0286    0.0000 O   0  0  0  0  0  0  0  0  0  0  0  0
    4.5024   -5.7962    0.0000 O   0  0  0  0  0  0  0  0  0  0  0  0
    5.2762   -6.3068    0.0000 C   0  0  0  0  0  0  0  0  0  0  0  0
    3.1406   -5.7962    0.0000 C   0  0  0  0  0  0  0  0  0  0  0  0
    1.8221   -5.7962    0.0000 C   0  0  0  0  0  0  0  0  0  0  0  0
    0.3891   -5.0533    0.0000 O   0  0  0  0  0  0  0  0  0  0  0  0
    0.2312   -3.7812    0.0000 C   0  0  0  0  0  0  0  0  0  0  0  0
    1.7911   -1.8716    0.0000 C   0  0  0  0  0  0  0  0  0  0  0  0
    4.6324   -1.8096    0.0000 O   0  0  0  0  0  0  0  0  0  0  0  0
    5.4062   -1.3856    0.0000 C   0  0  0  0  0  0  0  0  0  0  0  0
    6.0531   -1.7664    0.0000 C   0  0  0  0  0  0  0  0  0  0  0  0
    6.7619   -3.7626    0.0000 O   0  0  0  0  0  0  0  0  0  0  0  0
    7.4737   -1.8716    0.0000 C   0  0  0  0  0  0  0  0  0  0  0  0
    8.9186   -2.6785    0.0000 C   0  0  0  0  0  0  0  0  0  0  0  0
    8.2042   -3.0910    0.0000 C   0  0  1  0  0  0  0  0  0  0  0  0
    8.2042   -3.9161    0.0000 O   0  0  0  0  0  0  0  0  0  0  0  0
    8.9186   -4.3286    0.0000 C   0  0  1  0  0  0  0  0  0  0  0  0
    9.6331   -3.9161    0.0000 C   0  0  2  0  0  0  0  0  0  0  0  0
    9.6331   -3.0910    0.0000 C   0  0  2  0  0  0  0  0  0  0  0  0
    8.9186   -5.1536    0.0000 C   0  0  0  0  0  0  0  0  0  0  0  0
    9.6331   -5.5661    0.0000 C   0  0  0  0  0  0  0  0  0  0  0  0
    8.2042   -5.5661    0.0000 C   0  0  0  0  0  0  0  0  0  0  0  0
   10.3476   -4.3286    0.0000 C   0  0  0  0  0  0  0  0  0  0  0  0
   10.3476   -2.6785    0.0000 O   0  0  0  0  0  0  0  0  0  0  0  0
    8.2042   -2.2660    0.0000 O   0  0  0  0  0  0  0  0  0  0  0  0
 34  1  1  0  0  0  0
  1  2  1  0  0  0  0
  2  3  1  0  0  0  0
  3  4  1  0  0  0  0
  4  5  1  0  0  0  0
  5  6  1  0  0  0  0
  6  7  2  0  0  0  0
  7  8  1  0  0  0  0
  8  9  2  0  0  0  0
  9 10  1  0  0  0  0
 10 11  1  0  0  0  0
 11 12  1  0  0  0  0
 13 12  1  0  0  0  0
 14 13  1  0  0  0  0
 15 14  2  0  0  0  0
 16 15  1  0  0  0  0
 17 16  2  0  0  0  0
 18 17  1  0  0  0  0
 19 18  1  0  0  0  0
  4 19  1  1  0  0  0
 18 20  2  0  0  0  0
 17 21  1  0  0  0  0
 21 22  1  0  0  0  0
 15 23  1  0  0  0  0
 13 24  1  1  0  0  0
 12 25  1  1  0  0  0
 11 26  1  6  0  0  0
  9 27  1  0  0  0  0
  5 28  1  6  0  0  0
 28 29  1  0  0  0  0
  3 30  1  1  0  0  0
  2 31  1  6  0  0  0
  1 32  1  6  0  0  0
 33 34  1  0  0  0  0
 34 35  1  0  0  0  0
 35 36  1  0  0  0  0
 36 37  1  0  0  0  0
 37 38  1  0  0  0  0
 33 38  1  0  0  0  0
 36 39  1  1  0  0  0
 39 40  1  0  0  0  0
 39 41  1  0  0  0  0
 37 42  1  6  0  0  0
 38 43  1  1  0  0  0
 34 44  1  6  0  0  0
M  END
> <ID>
CHEBI:22689

> <NAME>
bafilomycin A1

$$$$

Marvin  03190711472D          

 10 10  0  0  0  0            999 V2000
    0.0000   -0.8250    0.0000 C   0  0  0  0  0  0  0  0  0  0  0  0
   -0.7145   -0.4125    0.0000 C   0  0  0  0  0  0  0  0  0  0  0  0
    0.7145   -0.4125    0.0000 C   0  0  0  0  0  0  0  0  0  0  0  0
    0.7145    0.4125    0.0000 C   0  0  0  0  0  0  0  0  0  0  0  0
    0.0000    0.8250    0.0000 C   0  0  0  0  0  0  0  0  0  0  0  0
   -0.7145    0.4125    0.0000 C   0  0  0  0  0  0  0  0  0  0  0  0
    2.1434   -0.4125    0.0000 C   0  0  0  0  0  0  0  0  0  0  0  0
    2.1434    0.4125    0.0000 O   0  0  0  0  0  0  0  0  0  0  0  0
    2.8579   -0.8250    0.0000 O   0  0  0  0  0  0  0  0  0  0  0  0
    1.4289   -0.8250    0.0000 C   0  0  0  0  0  0  0  0  0  0  0  0
  2  1  1  0  0  0  0
  1  3  2  0  0  0  0
  3 10  1  0  0  0  0
  4  3  1  0  0  0  0
  5  4  2  0  0  0  0
  6  5  1  0  0  0  0
  6  2  2  0  0  0  0
  8  7  2  0  0  0  0
  9  7  1  0  0  0  0
 10  7  1  0  0  0  0
M  END
> <ID>
CHEBI:30745

> <NAME>
phenylacetic acid

$$$$

Ketcher 07112213312D 1   1.00000     0.00000     0

 34 39  0     1  0            999 V2000
    8.5437   -5.2248    0.0000 C   0  0  0  0  0  0  0  0  0  0  0  0
    8.5437   -6.2200    0.0000 C   0  0  0  0  0  0  0  0  0  0  0  0
    9.4057   -6.7177    0.0000 C   0  0  0  0  0  0  0  0  0  0  0  0
   10.2678   -6.2200    0.0000 C   0  0  0  0  0  0  0  0  0  0  0  0
   10.2678   -5.2248    0.0000 C   0  0  0  0  0  0  0  0  0  0  0  0
    9.4057   -4.7270    0.0000 C   0  0  0  0  0  0  0  0  0  0  0  0
   11.2144   -6.5276    0.0000 N   0  0  0  0  0  0  0  0  0  0  0  0
   11.7994   -5.7224    0.0000 C   0  0  0  0  0  0  0  0  0  0  0  0
   11.2144   -4.9172    0.0000 C   0  0  0  0  0  0  0  0  0  0  0  0
   12.7461   -5.4148    0.0000 C   0  0  0  0  0  0  0  0  0  0  0  0
   12.7461   -4.4195    0.0000 C   0  0  0  0  0  0  0  0  0  0  0  0
   11.7994   -4.1119    0.0000 C   0  0  0  0  0  0  0  0  0  0  0  0
   13.6081   -5.9125    0.0000 C   0  0  0  0  0  0  0  0  0  0  0  0
   14.4700   -5.4148    0.0000 C   0  0  0  0  0  0  0  0  0  0  0  0
   14.4700   -4.4195    0.0000 C   0  0  0  0  0  0  0  0  0  0  0  0
   13.6081   -3.9218    0.0000 C   0  0  0  0  0  0  0  0  0  0  0  0
   13.6081   -6.9079    0.0000 C   0  0  0  0  0  0  0  0  0  0  0  0
   14.4700   -7.4055    0.0000 C   0  0  0  0  0  0  0  0  0  0  0  0
   15.3320   -6.9079    0.0000 C   0  0  0  0  0  0  0  0  0  0  0  0
   15.3320   -5.9125    0.0000 C   0  0  0  0  0  0  0  0  0  0  0  0
   16.1940   -7.4055    0.0000 O   0  0  0  0  0  0  0  0  0  0  0  0
   17.0559   -6.9079    0.0000 C   0  0  0  0  0  0  0  0  0  0  0  0
   17.0559   -5.9125    0.0000 C   0  0  0  0  0  0  0  0  0  0  0  0
   16.1940   -5.4148    0.0000 C   0  0  0  0  0  0  0  0  0  0  0  0
   12.7563   -6.4183    0.0000 C   0  0  0  0  0  0  0  0  0  0  0  0
   15.3441   -7.9113    0.0000 H   0  0  0  0  0  0  0  0  0  0  0  0
   17.9316   -7.4134    0.0000 C   0  0  0  0  0  0  0  0  0  0  0  0
   12.7563   -3.4323    0.0000 H   0  0  0  0  0  0  0  0  0  0  0  0
   17.9244   -5.4110    0.0000 O   0  0  0  0  0  0  0  0  0  0  0  0
   18.7938   -6.9156    0.0000 C   0  0  0  0  0  0  0  0  0  0  0  0
   17.9316   -8.5584    0.0000 C   0  0  0  0  0  0  0  0  0  0  0  0
   18.7940   -7.9114    0.0000 O   0  0  0  0  0  0  0  0  0  0  0  0
   13.6081   -4.9172    0.0000 C   0  0  0  0  0  0  0  0  0  0  0  0
   14.4700   -6.4101    0.0000 O   0  0  0  0  0  0  0  0  0  0  0  0
  1  2  2  0     0  0
  2  3  1  0     0  0
  3  4  2  0     0  0
  4  5  1  0     0  0
  5  6  2  0     0  0
  1  6  1  0     0  0
  4  7  1  0     0  0
  7  8  1  0     0  0
  8  9  2  0     0  0
  5  9  1  0     0  0
  8 10  1  0     0  0
 10 11  1  0     0  0
 11 12  1  0     0  0
  9 12  1  0     0  0
 10 13  1  0     0  0
 13 14  1  0     0  0
 14 15  1  0     0  0
 15 16  1  0     0  0
 11 16  1  0     0  0
 13 17  1  0     0  0
 17 18  1  0     0  0
 18 19  1  0     0  0
 19 20  1  0     0  0
 14 20  1  0     0  0
 19 21  1  0     0  0
 21 22  1  0     0  0
 22 23  1  0     0  0
 23 24  1  0     0  0
 20 24  2  0     0  0
 10 25  1  6     0  0
 19 26  1  6     0  0
 22 27  1  1     0  0
 11 28  1  1     0  0
 23 29  2  0     0  0
 27 30  1  0     0  0
 27 31  1  0     0  0
 27 32  1  0     0  0
 13 33  1  1     0  0
 14 34  1  6     0  0
M  END
> <ID>
CHEBI:34907

> <NAME>
paxilline

$$$$

Ketcher 04112215302D 1   1.00000     0.00000     0

 45 52  0     1  0            999 V2000
   13.2966   -8.8627    0.0000 C   0  0  0  0  0  0  0  0  0  0  0  0
   13.2929   -9.8627    0.0000 C   0  0  0  0  0  0  0  0  0  0  0  0
   14.1626  -10.3648    0.0000 C   0  0  0  0  0  0  0  0  0  0  0  0
   15.0267   -9.8669    0.0000 C   0  0  0  0  0  0  0  0  0  0  0  0
   16.0328  -10.0626    0.0000 N   0  0  0  0  0  0  0  0  0  0  0  0
   16.5615   -9.1425    0.0000 C   0  0  0  0  0  0  0  0  0  0  0  0
   15.8877   -8.3791    0.0000 C   0  0  0  0  0  0  0  0  0  0  0  0
   14.1629   -8.3668    0.0000 C   0  0  0  0  0  0  0  0  0  0  0  0
   15.0268   -8.8712    0.0000 C   0  0  0  0  0  0  0  0  0  0  0  0
   15.8984   -7.3784    0.0000 C   0  0  0  0  0  0  0  0  0  0  0  0
   14.1629   -7.3691    0.0000 C   0  0  0  0  0  0  0  0  0  0  0  0
   15.0293   -6.8704    0.0000 C   0  0  0  0  0  0  0  0  0  0  0  0
   15.0305   -5.8763    0.0000 N   0  0  0  0  0  0  0  0  0  0  0  0
   14.1675   -5.3734    0.0000 C   0  0  0  0  0  0  0  0  0  0  0  0
   13.3012   -5.8721    0.0000 C   0  0  0  0  0  0  0  0  0  0  0  0
   13.2978   -6.8736    0.0000 C   0  0  0  0  0  0  0  0  0  0  0  0
   12.4342   -5.3687    0.0000 C   0  0  0  0  0  0  0  0  0  0  0  0
   11.5648   -5.8677    0.0000 N   0  0  0  0  0  0  0  0  0  0  0  0
   15.9003   -5.3775    0.0000 C   0  0  0  0  0  0  0  0  0  0  0  0
   15.8957   -6.3724    0.0000 H   0  0  0  0  0  0  0  0  0  0  0  0
   12.4367   -4.3661    0.0000 O   0  0  0  0  0  0  0  0  0  0  0  0
   10.6888   -5.3775    0.0000 C   0  0  0  0  0  0  0  0  0  0  0  0
   10.0883   -4.5698    0.0000 C   0  0  0  0  0  0  0  0  0  0  0  0
   10.1036   -6.1919    0.0000 O   0  0  0  0  0  0  0  0  0  0  0  0
    9.1472   -5.8912    0.0000 C   0  0  0  0  0  0  0  0  0  0  0  0
    9.1429   -4.8939    0.0000 N   0  0  0  0  0  0  0  0  0  0  0  0
    8.2819   -4.4016    0.0000 C   0  0  0  0  0  0  0  0  0  0  0  0
    7.4196   -4.9011    0.0000 C   0  0  0  0  0  0  0  0  0  0  0  0
    8.2904   -6.3964    0.0000 C   0  0  0  0  0  0  0  0  0  0  0  0
    7.4219   -5.9006    0.0000 N   0  0  0  0  0  0  0  0  0  0  0  0
    6.6823   -6.5735    0.0000 C   0  0  0  0  0  0  0  0  0  0  0  0
    7.0936   -7.4850    0.0000 C   0  0  0  0  0  0  0  0  0  0  0  0
    8.0875   -7.3753    0.0000 C   0  0  0  0  0  0  0  0  0  0  0  0
    9.1530   -6.8985    0.0000 O   0  0  0  0  0  0  0  0  0  0  0  0
    8.2771   -5.3981    0.0000 H   0  0  0  0  0  0  0  0  0  0  0  0
   10.3854   -3.6121    0.0000 O   0  0  0  0  0  0  0  0  0  0  0  0
    6.5503   -4.4016    0.0000 O   0  0  0  0  0  0  0  0  0  0  0  0
    8.2791   -3.3990    0.0000 C   0  0  0  0  0  0  0  0  0  0  0  0
    7.4094   -2.9002    0.0000 C   0  0  0  0  0  0  0  0  0  0  0  0
    7.4099   -1.8993    0.0000 C   0  0  0  0  0  0  0  0  0  0  0  0
    6.5411   -1.4004    0.0000 C   0  0  0  0  0  0  0  0  0  0  0  0
    5.6730   -1.9044    0.0000 C   0  0  0  0  0  0  0  0  0  0  0  0
    5.6791   -2.9122    0.0000 C   0  0  0  0  0  0  0  0  0  0  0  0
    6.5485   -3.4064    0.0000 C   0  0  0  0  0  0  0  0  0  0  0  0
   11.3135   -4.7589    0.0000 C   0  0  0  0  0  0  0  0  0  0  0  0
  7 10  1  0     0  0
 10 12  1  0     0  0
 11 12  1  0     0  0
  1  2  2  0     0  0
  8  1  1  0     0  0
  2  3  1  0     0  0
  4  5  1  0     0  0
  5  6  1  0     0  0
  6  7  2  0     0  0
 11 16  2  0     0  0
 12 13  1  0     0  0
 13 14  1  0     0  0
 14 15  1  0     0  0
 15 16  1  0     0  0
  7  9  1  0     0  0
 15 17  1  1     0  0
  8  9  2  0     0  0
 17 18  1  0     0  0
  3  4  2  0     0  0
 13 19  1  0     0  0
  9  4  1  0     0  0
 12 20  1  1     0  0
 17 21  2  0     0  0
  8 11  1  0     0  0
 22 23  1  0     0  0
 23 26  1  0     0  0
 25 24  1  0     0  0
 24 22  1  0     0  0
 25 26  1  0     0  0
 25 29  1  0     0  0
 26 27  1  0     0  0
 27 28  1  0     0  0
 28 30  1  0     0  0
 29 30  1  0     0  0
 30 31  1  0     0  0
 31 32  1  0     0  0
 32 33  1  0     0  0
 33 29  1  0     0  0
 25 34  1  6     0  0
 29 35  1  1     0  0
 23 36  2  0     0  0
 28 37  2  0     0  0
 27 38  1  6     0  0
 38 39  1  0     0  0
 39 40  2  0     0  0
 40 41  1  0     0  0
 41 42  2  0     0  0
 42 43  1  0     0  0
 43 44  2  0     0  0
 44 39  1  0     0  0
 22 45  1  1     0  0
 22 18  1  0     0  0
M  END
> <ID>
CHEBI:64318

> <NAME>
ergotamine

$$$$

Ketcher 09092015002D 1   1.00000     0.00000     0

 14 15  0     0  0            999 V2000
   17.3834  -16.3279    0.0000 C   0  0  0  0  0  0  0  0  0  0  0  0
   17.0744  -15.3768    0.0000 N   0  0  0  0  0  0  0  0  0  0  0  0
   17.6622  -14.5678    0.0000 C   0  0  0  0  0  0  0  0  0  0  0  0
   18.6622  -14.5678    0.0000 O   0  0  0  0  0  0  0  0  0  0  0  0
   17.0744  -13.7588    0.0000 C   0  0  0  0  0  0  0  0  0  0  0  0
   17.3834  -12.8077    0.0000 N   0  0  0  0  0  0  0  0  0  0  0  0
   18.3616  -12.5998    0.0000 C   0  0  0  0  0  0  0  0  0  0  0  0
   19.0307  -13.3430    0.0000 O   0  0  0  0  0  0  0  0  0  0  0  0
   18.6706  -11.6489    0.0000 C   0  0  0  0  0  0  0  0  0  0  0  0
   16.1234  -14.0677    0.0000 C   0  0  0  0  0  0  0  0  0  0  0  0
   15.1723  -13.7587    0.0000 S   0  0  0  0  0  0  0  0  0  0  0  0
   14.5845  -14.5677    0.0000 S   0  0  0  0  0  0  0  0  0  0  0  0
   15.1723  -15.3768    0.0000 C   0  0  0  0  0  0  0  0  0  0  0  0
   16.1234  -15.0677    0.0000 C   0  0  0  0  0  0  0  0  0  0  0  0
  1  2  1  0     0  0
  2  3  1  0     0  0
  3  4  2  0     0  0
  3  5  1  0     0  0
  5  6  1  0     0  0
  6  7  1  0     0  0
  7  8  2  0     0  0
  7  9  1  0     0  0
  5 10  2  0     0  0
 10 11  1  0     0  0
 11 12  1  0     0  0
 12 13  1  0     0  0
 13 14  2  0     0  0
 14  2  1  0     0  0
 14 10  1  0     0  0
M  END
> <ID>
CHEBI:156450

> <NAME>
thiolutin

$$$$

Marvin  12030915512D          

 23 24  0  0  0  0            999 V2000
   -0.1552    0.3083    0.0000 C   0  0  0  0  0  0  0  0  0  0  0  0
   -0.1552    1.1333    0.0000 C   0  0  0  0  0  0  0  0  0  0  0  0
    0.5656   -0.1125    0.0000 C   0  0  0  0  0  0  0  0  0  0  0  0
    1.2781    0.3000    0.0000 C   0  0  0  0  0  0  0  0  0  0  0  0
    1.2781    1.1250    0.0000 C   0  0  0  0  0  0  0  0  0  0  0  0
    0.5656    1.5458    0.0000 C   0  0  0  0  0  0  0  0  0  0  0  0
   -0.9344    0.0500    0.0000 C   0  0  0  0  0  0  0  0  0  0  0  0
   -1.4219    0.7208    0.0000 O   0  0  0  0  0  0  0  0  0  0  0  0
   -0.9344    1.3875    0.0000 C   0  0  0  0  0  0  0  0  0  0  0  0
    1.9906   -0.1125    0.0000 C   0  0  0  0  0  0  0  0  0  0  0  0
    2.7031    0.3000    0.0000 C   0  0  0  0  0  0  0  0  0  0  0  0
    5.5656    0.3083    0.0000 C   0  0  0  0  0  0  0  0  0  0  0  0
   -1.1969   -0.7375    0.0000 O   0  0  0  0  0  0  0  0  0  0  0  0
    3.4198   -0.1125    0.0000 C   0  0  0  0  0  0  0  0  0  0  0  0
    5.5656    1.1333    0.0000 O   0  0  0  0  0  0  0  0  0  0  0  0
    0.5573   -0.9292    0.0000 O   0  0  0  0  0  0  0  0  0  0  0  0
    1.9906    1.5458    0.0000 O   0  0  0  0  0  0  0  0  0  0  0  0
    4.8531   -0.1042    0.0000 C   0  0  0  0  0  0  0  0  0  0  0  0
    4.1323    0.3000    0.0000 C   0  0  0  0  0  0  0  0  0  0  0  0
    6.2781   -0.1042    0.0000 O   0  0  0  0  0  0  0  0  0  0  0  0
    0.5656    2.3708    0.0000 C   0  0  0  0  0  0  0  0  0  0  0  0
    3.4198   -0.9375    0.0000 C   0  0  0  0  0  0  0  0  0  0  0  0
    2.7031    1.1333    0.0000 C   0  0  0  0  0  0  0  0  0  0  0  0
  2  1  2  0  0  0  0
  3  1  1  0  0  0  0
  4  3  2  0  0  0  0
  5  4  1  0  0  0  0
  6  2  1  0  0  0  0
  7  1  1  0  0  0  0
  8  7  1  0  0  0  0
  9  2  1  0  0  0  0
 10  4  1  0  0  0  0
 11 10  1  0  0  0  0
 12 18  1  0  0  0  0
 13  7  2  0  0  0  0
 14 11  2  0  0  0  0
 15 12  2  0  0  0  0
 16  3  1  0  0  0  0
 17  5  1  0  0  0  0
 18 19  1  0  0  0  0
 19 14  1  0  0  0  0
 20 12  1  0  0  0  0
 21  6  1  0  0  0  0
 22 14  1  0  0  0  0
 23 17  1  0  0  0  0
  8  9  1  0  0  0  0
  6  5  2  0  0  0  0
M  END
> <ID>
CHEBI:168396

> <NAME>
mycophenolic acid

$$$$

Ketcher 09262002072D 1   1.00000     0.00000     0

 11 12  0     1  0            999 V2000
   -1.5208   -3.7886    0.0000 C   0  0  0  0  0  0  0  0  0  0  0  0
   -0.6548   -3.2886    0.0000 C   0  0  0  0  0  0  0  0  0  0  0  0
   -0.6548   -2.2886    0.0000 C   0  0  0  0  0  0  0  0  0  0  0  0
    0.2113   -3.7886    0.0000 C   0  0  0  0  0  0  0  0  0  0  0  0
    0.2113   -1.7886    0.0000 C   0  0  0  0  0  0  0  0  0  0  0  0
    1.0773   -3.2886    0.0000 C   0  0  0  0  0  0  0  0  0  0  0  0
    1.0773   -2.2886    0.0000 C   0  0  0  0  0  0  0  0  0  0  0  0
   -1.5208   -1.7886    0.0000 O   0  0  0  0  0  0  0  0  0  0  0  0
    0.2113   -4.7886    0.0000 O   0  0  0  0  0  0  0  0  0  0  0  0
    1.9433   -2.7886    0.0000 O   0  0  0  0  0  0  0  0  0  0  0  0
    0.2113   -0.7886    0.0000 O   0  0  0  0  0  0  0  0  0  0  0  0
  1  2  1  0     0  0
  2  3  2  0     0  0
  2  4  1  0     0  0
  3  5  1  0     0  0
  3  8  1  0     0  0
  4  6  1  0     0  0
  4  9  2  0     0  0
  5  7  1  0     0  0
  6  7  1  0     0  0
  6 10  1  6     0  0
  7 10  1  6     0  0
  5 11  2  0     0  0
M  END
> <ID>
CHEBI:156546

> <NAME>
terreic acid

$$$$
